1000.00 288.00 00.00
0.00 288.00 0.00 12.29 -1.92
1.00 288.00 0.00 12.29 -1.92
2.00 288.00 0.00 12.29 -1.92
3.00 288.00 0.00 12.29 -1.92
4.00 288.00 0.00 12.29 -1.92
5.00 288.00 0.00 12.29 -1.92
6.00 288.00 0.00 12.29 -1.92
7.00 288.00 0.00 12.29 -1.92
8.00 288.00 0.00 12.29 -1.92
9.00 288.00 0.00 12.29 -1.92
10.00 288.00 0.00 12.29 -1.92
11.00 288.00 0.00 12.29 -1.92
12.00 288.00 0.00 12.29 -1.92
13.00 288.00 0.00 12.29 -1.92
14.00 288.00 0.00 12.29 -1.92
15.00 288.00 0.00 12.29 -1.92
16.00 288.00 0.00 12.29 -1.92
17.00 288.00 0.00 12.29 -1.92
18.00 288.00 0.00 12.29 -1.92
19.00 288.00 0.00 12.29 -1.92
20.00 288.00 0.00 12.29 -1.92
21.00 288.00 0.00 12.29 -1.92
22.00 288.00 0.00 12.29 -1.92
23.00 288.00 0.00 12.29 -1.92
24.00 288.00 0.00 12.29 -1.92
25.00 288.00 0.00 12.29 -1.92
26.00 288.00 0.00 12.29 -1.92
27.00 288.00 0.00 12.29 -1.92
28.00 288.00 0.00 12.29 -1.92
29.00 288.00 0.00 12.29 -1.92
30.00 288.00 0.00 12.29 -1.92
31.00 288.00 0.00 12.29 -1.92
32.00 288.00 0.00 12.29 -1.92
33.00 288.00 0.00 12.29 -1.92
34.00 288.00 0.00 12.29 -1.92
35.00 288.00 0.00 12.29 -1.92
36.00 288.00 0.00 12.29 -1.92
37.00 288.00 0.00 12.29 -1.92
38.00 288.00 0.00 12.29 -1.92
39.00 288.00 0.00 12.29 -1.92
40.00 288.00 0.00 12.29 -1.92
41.00 288.00 0.00 12.29 -1.92
42.00 288.00 0.00 12.29 -1.92
43.00 288.00 0.00 12.29 -1.92
44.00 288.00 0.00 12.29 -1.92
45.00 288.00 0.00 12.29 -1.92
46.00 288.00 0.00 12.29 -1.92
47.00 288.00 0.00 12.29 -1.92
48.00 288.00 0.00 12.29 -1.92
49.00 288.00 0.00 12.29 -1.92
50.00 288.00 0.00 12.29 -1.92
51.00 288.00 0.00 12.29 -1.92
52.00 288.00 0.00 12.29 -1.92
53.00 288.00 0.00 12.29 -1.92
54.00 288.00 0.00 12.29 -1.92
55.00 288.00 0.00 12.29 -1.92
56.00 288.00 0.00 12.29 -1.92
57.00 288.00 0.00 12.29 -1.92
58.00 288.00 0.00 12.29 -1.92
59.00 288.00 0.00 12.29 -1.92
60.00 288.00 0.00 12.29 -1.92
61.00 288.00 0.00 12.29 -1.92
62.00 288.00 0.00 12.29 -1.92
63.00 288.00 0.00 12.29 -1.92
64.00 288.00 0.00 12.29 -1.92
65.00 288.00 0.00 12.29 -1.92
66.00 288.00 0.00 12.29 -1.92
67.00 288.00 0.00 12.29 -1.92
68.00 288.00 0.00 12.29 -1.92
69.00 288.00 0.00 12.29 -1.92
70.00 288.00 0.00 12.29 -1.92
71.00 288.00 0.00 12.29 -1.92
72.00 288.00 0.00 12.29 -1.92
73.00 288.00 0.00 12.29 -1.92
74.00 288.00 0.00 12.29 -1.92
75.00 288.00 0.00 12.29 -1.92
76.00 288.00 0.00 12.29 -1.92
77.00 288.00 0.00 12.29 -1.92
78.00 288.00 0.00 12.29 -1.92
79.00 288.00 0.00 12.29 -1.92
80.00 288.00 0.00 12.29 -1.92
81.00 288.00 0.00 12.29 -1.91
82.00 288.00 0.00 12.29 -1.91
83.00 288.00 0.00 12.29 -1.91
84.00 288.00 0.00 12.29 -1.91
85.00 288.00 0.00 12.29 -1.91
86.00 288.00 0.00 12.29 -1.91
87.00 288.00 0.00 12.29 -1.91
88.00 288.00 0.00 12.28 -1.91
89.00 288.00 0.00 12.28 -1.91
90.00 288.00 0.00 12.28 -1.91
91.00 288.00 0.00 12.28 -1.91
92.00 288.00 0.00 12.28 -1.91
93.00 288.00 0.00 12.28 -1.91
94.00 288.00 0.00 12.27 -1.91
95.00 288.00 0.00 12.27 -1.91
96.00 288.00 0.00 12.27 -1.91
97.00 288.00 0.00 12.27 -1.90
98.00 288.00 0.00 12.26 -1.90
99.00 288.00 0.00 12.26 -1.90
100.00 288.00 0.00 12.26 -1.90
101.00 288.00 0.00 12.25 -1.90
102.00 288.00 0.00 12.25 -1.90
103.00 288.00 0.00 12.25 -1.90
104.00 288.00 0.00 12.24 -1.90
105.00 288.00 0.00 12.24 -1.90
106.00 288.00 0.00 12.23 -1.89
107.00 288.00 0.00 12.23 -1.89
108.00 288.00 0.00 12.23 -1.89
109.00 288.00 0.00 12.22 -1.89
110.00 288.00 0.00 12.22 -1.89
111.00 288.00 0.00 12.21 -1.89
112.00 288.00 0.00 12.21 -1.88
113.00 288.00 0.00 12.20 -1.88
114.00 288.00 0.00 12.20 -1.88
115.00 288.00 0.00 12.19 -1.88
116.00 288.00 0.00 12.19 -1.88
117.00 288.00 0.00 12.18 -1.87
118.00 288.00 0.00 12.18 -1.87
119.00 288.00 0.00 12.17 -1.87
120.00 288.00 0.00 12.16 -1.87
121.00 288.00 0.00 12.16 -1.87
122.00 288.00 0.00 12.15 -1.86
123.00 288.00 0.00 12.15 -1.86
124.00 288.00 0.00 12.14 -1.86
125.00 288.00 0.00 12.13 -1.86
126.00 288.00 0.00 12.13 -1.85
127.00 288.00 0.00 12.12 -1.85
128.00 288.00 0.00 12.11 -1.85
129.00 288.00 0.00 12.10 -1.85
130.00 288.00 0.00 12.10 -1.84
131.00 288.00 0.00 12.09 -1.84
132.00 288.00 0.00 12.08 -1.84
133.00 288.00 0.00 12.07 -1.84
134.00 288.00 0.00 12.07 -1.83
135.00 288.00 0.00 12.06 -1.83
136.00 288.00 0.00 12.05 -1.83
137.00 288.00 0.00 12.04 -1.83
138.00 288.00 0.00 12.03 -1.82
139.00 288.00 0.00 12.03 -1.82
140.00 288.00 0.00 12.02 -1.82
141.00 288.00 0.00 12.01 -1.81
142.00 288.00 0.00 12.00 -1.81
143.00 288.00 0.00 11.99 -1.81
144.00 288.00 0.00 11.98 -1.80
145.00 288.00 0.00 11.97 -1.80
146.00 288.00 0.00 11.96 -1.80
147.00 288.00 0.00 11.95 -1.79
148.00 288.00 0.00 11.94 -1.79
149.00 288.00 0.00 11.93 -1.79
150.00 288.00 0.00 11.92 -1.78
151.00 288.00 0.00 11.91 -1.78
152.00 288.00 0.00 11.90 -1.77
153.00 288.00 0.00 11.89 -1.77
154.00 288.00 0.00 11.88 -1.77
155.00 288.00 0.00 11.87 -1.76
156.00 288.00 0.00 11.86 -1.76
157.00 288.00 0.00 11.85 -1.76
158.00 288.00 0.00 11.84 -1.75
159.00 288.00 0.00 11.82 -1.75
160.00 288.00 0.00 11.81 -1.74
161.00 288.00 0.00 11.80 -1.74
162.00 288.00 0.00 11.79 -1.73
163.00 288.00 0.00 11.78 -1.73
164.00 288.00 0.00 11.77 -1.73
165.00 288.00 0.00 11.75 -1.72
166.00 288.00 0.00 11.74 -1.72
167.00 288.00 0.00 11.73 -1.71
168.00 288.00 0.00 11.72 -1.71
169.00 288.00 0.00 11.70 -1.70
170.00 288.00 0.00 11.69 -1.70
171.00 288.00 0.00 11.68 -1.69
172.00 288.00 0.00 11.66 -1.69
173.00 288.00 0.00 11.65 -1.69
174.00 288.00 0.00 11.64 -1.68
175.00 288.00 0.00 11.62 -1.68
176.00 288.00 0.00 11.61 -1.67
177.00 288.00 0.00 11.60 -1.67
178.00 288.00 0.00 11.58 -1.66
179.00 288.00 0.00 11.57 -1.66
180.00 288.00 0.00 11.55 -1.65
181.00 288.00 0.00 11.54 -1.65
182.00 288.00 0.00 11.52 -1.64
183.00 288.00 0.00 11.51 -1.64
184.00 288.00 0.00 11.50 -1.63
185.00 288.00 0.00 11.48 -1.62
186.00 288.00 0.00 11.47 -1.62
187.00 288.00 0.00 11.45 -1.61
188.00 288.00 0.00 11.43 -1.61
189.00 288.00 0.00 11.42 -1.60
190.00 288.00 0.00 11.40 -1.60
191.00 288.00 0.00 11.39 -1.59
192.00 288.00 0.00 11.37 -1.59
193.00 288.00 0.00 11.36 -1.58
194.00 288.00 0.00 11.34 -1.57
195.00 288.00 0.00 11.32 -1.57
196.00 288.00 0.00 11.31 -1.56
197.00 288.00 0.00 11.29 -1.56
198.00 288.00 0.00 11.27 -1.55
199.00 288.00 0.00 11.26 -1.54
200.00 288.00 0.00 11.24 -1.54
201.00 288.00 0.00 11.22 -1.53
202.00 288.00 0.00 11.20 -1.53
203.00 288.00 0.00 11.19 -1.52
204.00 288.00 0.00 11.17 -1.51
205.00 288.00 0.00 11.15 -1.51
206.00 288.00 0.00 11.13 -1.50
207.00 288.00 0.00 11.12 -1.49
208.00 288.00 0.00 11.10 -1.49
209.00 288.00 0.00 11.08 -1.48
210.00 288.00 0.00 11.06 -1.47
211.00 288.00 0.00 11.04 -1.47
212.00 288.00 0.00 11.02 -1.46
213.00 288.00 0.00 11.00 -1.45
214.00 288.00 0.00 10.99 -1.45
215.00 288.00 0.00 10.97 -1.44
216.00 288.00 0.00 10.95 -1.43
217.00 288.00 0.00 10.93 -1.43
218.00 288.00 0.00 10.91 -1.42
219.00 288.00 0.00 10.89 -1.41
220.00 288.00 0.00 10.87 -1.40
221.00 288.00 0.00 10.85 -1.40
222.00 288.00 0.00 10.83 -1.39
223.00 288.00 0.00 10.81 -1.38
224.00 288.00 0.00 10.79 -1.38
225.00 288.00 0.00 10.77 -1.37
226.00 288.00 0.00 10.75 -1.36
227.00 288.00 0.00 10.73 -1.35
228.00 288.00 0.00 10.71 -1.35
229.00 288.00 0.00 10.68 -1.34
230.00 288.00 0.00 10.66 -1.33
231.00 288.00 0.00 10.64 -1.32
232.00 288.00 0.00 10.62 -1.32
233.00 288.00 0.00 10.60 -1.31
234.00 288.00 0.00 10.58 -1.30
235.00 288.00 0.00 10.55 -1.29
236.00 288.00 0.00 10.53 -1.28
237.00 288.00 0.00 10.51 -1.28
238.00 288.00 0.00 10.49 -1.27
239.00 288.00 0.00 10.47 -1.26
240.00 288.00 0.00 10.44 -1.25
241.00 288.00 0.00 10.42 -1.24
242.00 288.00 0.00 10.40 -1.23
243.00 288.00 0.00 10.37 -1.23
244.00 288.00 0.00 10.35 -1.22
245.00 288.00 0.00 10.33 -1.21
246.00 288.00 0.00 10.30 -1.20
247.00 288.00 0.00 10.28 -1.19
248.00 288.00 0.00 10.26 -1.18
249.00 288.00 0.00 10.23 -1.18
250.00 288.00 0.00 10.21 -1.17
251.00 288.00 0.00 10.19 -1.16
252.00 288.00 0.00 10.16 -1.15
253.00 288.00 0.00 10.14 -1.14
254.00 288.00 0.00 10.11 -1.13
255.00 288.00 0.00 10.09 -1.12
256.00 288.00 0.00 10.06 -1.11
257.00 288.00 0.00 10.04 -1.10
258.00 288.00 0.00 10.01 -1.10
259.00 288.00 0.00 9.99 -1.09
260.00 288.00 0.00 9.96 -1.08
261.00 288.00 0.00 9.94 -1.07
262.00 288.00 0.00 9.91 -1.06
263.00 288.00 0.00 9.89 -1.05
264.00 288.00 0.00 9.86 -1.04
265.00 288.00 0.00 9.84 -1.03
266.00 288.00 0.00 9.81 -1.02
267.00 288.00 0.00 9.79 -1.01
268.00 288.00 0.00 9.76 -1.00
269.00 288.00 0.00 9.74 -1.00
270.00 288.00 0.00 9.71 -0.99
271.00 288.00 0.00 9.69 -0.98
272.00 288.00 0.00 9.66 -0.97
273.00 288.00 0.00 9.64 -0.96
274.00 288.00 0.00 9.61 -0.95
275.00 288.00 0.00 9.59 -0.94
276.00 288.00 0.00 9.56 -0.93
277.00 288.00 0.00 9.54 -0.92
278.00 288.00 0.00 9.51 -0.91
279.00 288.00 0.00 9.49 -0.90
280.00 288.00 0.00 9.46 -0.90
281.00 288.00 0.00 9.44 -0.89
282.00 288.00 0.00 9.41 -0.88
283.00 288.00 0.00 9.39 -0.87
284.00 288.00 0.00 9.36 -0.86
285.00 288.00 0.00 9.34 -0.85
286.00 288.00 0.00 9.31 -0.84
287.00 288.00 0.00 9.29 -0.83
288.00 288.00 0.00 9.26 -0.82
289.00 288.00 0.00 9.24 -0.81
290.00 288.00 0.00 9.21 -0.80
291.00 288.00 0.00 9.19 -0.80
292.00 288.00 0.00 9.16 -0.79
293.00 288.00 0.00 9.14 -0.78
294.00 288.00 0.00 9.11 -0.77
295.00 288.00 0.00 9.09 -0.76
296.00 288.00 0.00 9.06 -0.75
297.00 288.00 0.00 9.04 -0.74
298.00 288.00 0.00 9.01 -0.73
299.00 288.00 0.00 8.99 -0.72
300.00 288.00 0.00 8.96 -0.71
301.00 288.00 0.00 8.94 -0.70
302.00 288.00 0.00 8.91 -0.70
303.00 288.00 0.00 8.89 -0.69
304.00 288.00 0.00 8.86 -0.68
305.00 288.00 0.00 8.84 -0.67
306.00 288.00 0.00 8.81 -0.66
307.00 288.00 0.00 8.79 -0.65
308.00 288.00 0.00 8.76 -0.64
309.00 288.00 0.00 8.74 -0.63
310.00 288.00 0.00 8.71 -0.62
311.00 288.00 0.00 8.69 -0.61
312.00 288.00 0.00 8.66 -0.60
313.00 288.00 0.00 8.64 -0.59
314.00 288.00 0.00 8.61 -0.59
315.00 288.00 0.00 8.59 -0.58
316.00 288.00 0.00 8.56 -0.57
317.00 288.00 0.00 8.54 -0.56
318.00 288.00 0.00 8.51 -0.55
319.00 288.00 0.00 8.49 -0.54
320.00 288.00 0.00 8.46 -0.53
321.00 288.00 0.00 8.44 -0.52
322.00 288.00 0.00 8.41 -0.51
323.00 288.00 0.00 8.39 -0.50
324.00 288.00 0.00 8.36 -0.49
325.00 288.00 0.00 8.34 -0.49
326.00 288.00 0.00 8.31 -0.48
327.00 288.00 0.00 8.29 -0.47
328.00 288.00 0.00 8.26 -0.46
329.00 288.00 0.00 8.24 -0.45
330.00 288.00 0.00 8.21 -0.44
331.00 288.00 0.00 8.19 -0.43
332.00 288.00 0.00 8.16 -0.42
333.00 288.00 0.00 8.14 -0.41
334.00 288.00 0.00 8.11 -0.40
335.00 288.00 0.00 8.09 -0.39
336.00 288.00 0.00 8.06 -0.38
337.00 288.00 0.00 8.04 -0.38
338.00 288.00 0.00 8.01 -0.37
339.00 288.00 0.00 7.99 -0.36
340.00 288.00 0.00 7.96 -0.35
341.00 288.00 0.00 7.94 -0.34
342.00 288.00 0.00 7.91 -0.33
343.00 288.00 0.00 7.89 -0.32
344.00 288.00 0.00 7.86 -0.31
345.00 288.00 0.00 7.84 -0.30
346.00 288.00 0.00 7.81 -0.29
347.00 288.00 0.00 7.79 -0.28
348.00 288.00 0.00 7.76 -0.27
349.00 288.00 0.00 7.74 -0.27
350.00 288.00 0.00 7.71 -0.26
351.00 288.00 0.00 7.69 -0.25
352.00 288.00 0.00 7.66 -0.24
353.00 288.00 0.00 7.64 -0.23
354.00 288.00 0.00 7.61 -0.22
355.00 288.00 0.00 7.59 -0.21
356.00 288.00 0.00 7.56 -0.20
357.00 288.00 0.00 7.54 -0.19
358.00 288.00 0.00 7.51 -0.18
359.00 288.00 0.00 7.49 -0.17
360.00 288.00 0.00 7.46 -0.16
361.00 288.00 0.00 7.44 -0.16
362.00 288.00 0.00 7.41 -0.15
363.00 288.00 0.00 7.39 -0.14
364.00 288.00 0.00 7.36 -0.13
365.00 288.00 0.00 7.34 -0.12
366.00 288.00 0.00 7.31 -0.11
367.00 288.00 0.00 7.29 -0.10
368.00 288.00 0.00 7.26 -0.09
369.00 288.00 0.00 7.24 -0.08
370.00 288.00 0.00 7.21 -0.07
371.00 288.00 0.00 7.19 -0.06
372.00 288.00 0.00 7.16 -0.05
373.00 288.00 0.00 7.14 -0.05
374.00 288.00 0.00 7.11 -0.04
375.00 288.00 0.00 7.09 -0.03
376.00 288.00 0.00 7.06 -0.02
377.00 288.00 0.00 7.04 -0.01
378.00 288.00 0.00 7.01 0.00
379.00 288.00 0.00 6.99 0.01
380.00 288.00 0.00 6.96 0.02
381.00 288.00 0.00 6.94 0.03
382.00 288.00 0.00 6.91 0.04
383.00 288.00 0.00 6.89 0.05
384.00 288.00 0.00 6.86 0.05
385.00 288.00 0.00 6.84 0.06
386.00 288.00 0.00 6.81 0.07
387.00 288.00 0.00 6.79 0.08
388.00 288.00 0.00 6.76 0.09
389.00 288.00 0.00 6.74 0.10
390.00 288.00 0.00 6.71 0.11
391.00 288.00 0.00 6.69 0.12
392.00 288.00 0.00 6.66 0.13
393.00 288.00 0.00 6.64 0.14
394.00 288.00 0.00 6.61 0.15
395.00 288.00 0.00 6.59 0.16
396.00 288.00 0.00 6.56 0.16
397.00 288.00 0.00 6.54 0.17
398.00 288.00 0.00 6.51 0.18
399.00 288.00 0.00 6.49 0.19
400.00 288.00 0.00 6.46 0.20
401.00 288.00 0.00 6.44 0.21
402.00 288.00 0.00 6.41 0.22
403.00 288.00 0.00 6.39 0.23
404.00 288.00 0.00 6.36 0.24
405.00 288.00 0.00 6.34 0.25
406.00 288.00 0.00 6.31 0.26
407.00 288.00 0.00 6.29 0.27
408.00 288.00 0.00 6.26 0.27
409.00 288.00 0.00 6.24 0.28
410.00 288.00 0.00 6.21 0.29
411.00 288.00 0.00 6.19 0.30
412.00 288.00 0.00 6.16 0.31
413.00 288.00 0.00 6.14 0.32
414.00 288.00 0.00 6.11 0.33
415.00 288.00 0.00 6.09 0.34
416.00 288.00 0.00 6.06 0.35
417.00 288.00 0.00 6.04 0.36
418.00 288.00 0.00 6.01 0.37
419.00 288.00 0.00 5.99 0.38
420.00 288.00 0.00 5.96 0.38
421.00 288.00 0.00 5.94 0.39
422.00 288.00 0.00 5.91 0.40
423.00 288.00 0.00 5.89 0.41
424.00 288.00 0.00 5.86 0.42
425.00 288.00 0.00 5.84 0.43
426.00 288.00 0.00 5.81 0.44
427.00 288.00 0.00 5.79 0.45
428.00 288.00 0.00 5.76 0.46
429.00 288.00 0.00 5.74 0.47
430.00 288.00 0.00 5.71 0.48
431.00 288.00 0.00 5.69 0.49
432.00 288.00 0.00 5.66 0.49
433.00 288.00 0.00 5.64 0.50
434.00 288.00 0.00 5.61 0.51
435.00 288.00 0.00 5.59 0.52
436.00 288.00 0.00 5.56 0.53
437.00 288.00 0.00 5.54 0.54
438.00 288.00 0.00 5.51 0.55
439.00 288.00 0.00 5.49 0.56
440.00 288.00 0.00 5.46 0.57
441.00 288.00 0.00 5.44 0.58
442.00 288.00 0.00 5.41 0.59
443.00 288.00 0.00 5.39 0.59
444.00 288.00 0.00 5.36 0.60
445.00 288.00 0.00 5.34 0.61
446.00 288.00 0.00 5.31 0.62
447.00 288.00 0.00 5.29 0.63
448.00 288.00 0.00 5.26 0.64
449.00 288.00 0.00 5.24 0.65
450.00 288.00 0.00 5.21 0.66
451.00 288.00 0.00 5.19 0.67
452.00 288.00 0.00 5.16 0.68
453.00 288.00 0.00 5.14 0.69
454.00 288.00 0.00 5.11 0.70
455.00 288.00 0.00 5.09 0.70
456.00 288.00 0.00 5.06 0.71
457.00 288.00 0.00 5.04 0.72
458.00 288.00 0.00 5.01 0.73
459.00 288.00 0.00 4.99 0.74
460.00 288.00 0.00 4.96 0.75
461.00 288.00 0.00 4.94 0.76
462.00 288.00 0.00 4.91 0.77
463.00 288.00 0.00 4.89 0.78
464.00 288.00 0.00 4.86 0.79
465.00 288.00 0.00 4.84 0.80
466.00 288.00 0.00 4.81 0.80
467.00 288.00 0.00 4.79 0.81
468.00 288.00 0.00 4.76 0.82
469.00 288.00 0.00 4.74 0.83
470.00 288.00 0.00 4.71 0.84
471.00 288.00 0.00 4.69 0.85
472.00 288.00 0.00 4.66 0.86
473.00 288.00 0.00 4.64 0.87
474.00 288.00 0.00 4.61 0.88
475.00 288.00 0.00 4.59 0.89
476.00 288.00 0.00 4.56 0.90
477.00 288.00 0.00 4.54 0.90
478.00 288.00 0.00 4.51 0.91
479.00 288.00 0.00 4.49 0.92
480.00 288.00 0.00 4.46 0.93
481.00 288.00 0.00 4.44 0.94
482.00 288.00 0.00 4.41 0.95
483.00 288.00 0.00 4.39 0.96
484.00 288.00 0.00 4.36 0.97
485.00 288.00 0.00 4.34 0.98
486.00 288.00 0.00 4.31 0.99
487.00 288.00 0.00 4.29 1.00
488.00 288.00 0.00 4.26 1.00
489.00 288.00 0.00 4.24 1.01
490.00 288.00 0.00 4.21 1.02
491.00 288.00 0.00 4.19 1.03
492.00 288.00 0.00 4.16 1.04
493.00 288.00 0.00 4.14 1.05
494.00 288.00 0.00 4.11 1.06
495.00 288.00 0.00 4.09 1.07
496.00 288.00 0.00 4.06 1.08
497.00 288.00 0.00 4.04 1.09
498.00 288.00 0.00 4.01 1.10
499.00 288.00 0.00 3.99 1.10
500.00 288.00 0.00 3.96 1.11
501.00 288.00 0.00 3.94 1.12
502.00 288.00 0.00 3.91 1.13
503.00 288.00 0.00 3.89 1.14
504.00 288.00 0.00 3.86 1.15
505.00 288.00 0.00 3.84 1.16
506.00 288.00 0.00 3.81 1.17
507.00 288.00 0.00 3.79 1.18
508.00 288.00 0.00 3.77 1.18
509.00 288.00 0.00 3.74 1.19
510.00 288.00 0.00 3.72 1.20
511.00 288.00 0.00 3.70 1.21
512.00 288.00 0.00 3.67 1.22
513.00 288.00 0.00 3.65 1.23
514.00 288.00 0.00 3.63 1.23
515.00 288.00 0.00 3.60 1.24
516.00 288.00 0.00 3.58 1.25
517.00 288.00 0.00 3.56 1.26
518.00 288.00 0.00 3.53 1.27
519.00 288.00 0.00 3.51 1.28
520.00 288.00 0.00 3.49 1.28
521.00 288.00 0.00 3.47 1.29
522.00 288.00 0.00 3.45 1.30
523.00 288.00 0.00 3.42 1.31
524.00 288.00 0.00 3.40 1.32
525.00 288.00 0.00 3.38 1.32
526.00 288.00 0.00 3.36 1.33
527.00 288.00 0.00 3.34 1.34
528.00 288.00 0.00 3.32 1.35
529.00 288.00 0.00 3.29 1.35
530.00 288.00 0.00 3.27 1.36
531.00 288.00 0.00 3.25 1.37
532.00 288.00 0.00 3.23 1.38
533.00 288.00 0.00 3.21 1.38
534.00 288.00 0.00 3.19 1.39
535.00 288.00 0.00 3.17 1.40
536.00 288.00 0.00 3.15 1.40
537.00 288.00 0.00 3.13 1.41
538.00 288.00 0.00 3.11 1.42
539.00 288.00 0.00 3.09 1.43
540.00 288.00 0.00 3.07 1.43
541.00 288.00 0.00 3.05 1.44
542.00 288.00 0.00 3.03 1.45
543.00 288.00 0.00 3.01 1.45
544.00 288.00 0.00 3.00 1.46
545.00 288.00 0.00 2.98 1.47
546.00 288.00 0.00 2.96 1.47
547.00 288.00 0.00 2.94 1.48
548.00 288.00 0.00 2.92 1.49
549.00 288.00 0.00 2.90 1.49
550.00 288.00 0.00 2.88 1.50
551.00 288.00 0.00 2.87 1.51
552.00 288.00 0.00 2.85 1.51
553.00 288.00 0.00 2.83 1.52
554.00 288.00 0.00 2.81 1.53
555.00 288.00 0.00 2.80 1.53
556.00 288.00 0.00 2.78 1.54
557.00 288.00 0.00 2.76 1.54
558.00 288.00 0.00 2.74 1.55
559.00 288.00 0.00 2.73 1.56
560.00 288.00 0.00 2.71 1.56
561.00 288.00 0.00 2.69 1.57
562.00 288.00 0.00 2.68 1.57
563.00 288.00 0.00 2.66 1.58
564.00 288.00 0.00 2.64 1.59
565.00 288.00 0.00 2.63 1.59
566.00 288.00 0.00 2.61 1.60
567.00 288.00 0.00 2.60 1.60
568.00 288.00 0.00 2.58 1.61
569.00 288.00 0.00 2.57 1.61
570.00 288.00 0.00 2.55 1.62
571.00 288.00 0.00 2.53 1.62
572.00 288.00 0.00 2.52 1.63
573.00 288.00 0.00 2.50 1.64
574.00 288.00 0.00 2.49 1.64
575.00 288.00 0.00 2.48 1.65
576.00 288.00 0.00 2.46 1.65
577.00 288.00 0.00 2.45 1.66
578.00 288.00 0.00 2.43 1.66
579.00 288.00 0.00 2.42 1.67
580.00 288.00 0.00 2.40 1.67
581.00 288.00 0.00 2.39 1.68
582.00 288.00 0.00 2.38 1.68
583.00 288.00 0.00 2.36 1.69
584.00 288.00 0.00 2.35 1.69
585.00 288.00 0.00 2.34 1.69
586.00 288.00 0.00 2.32 1.70
587.00 288.00 0.00 2.31 1.70
588.00 288.00 0.00 2.30 1.71
589.00 288.00 0.00 2.28 1.71
590.00 288.00 0.00 2.27 1.72
591.00 288.00 0.00 2.26 1.72
592.00 288.00 0.00 2.25 1.73
593.00 288.00 0.00 2.23 1.73
594.00 288.00 0.00 2.22 1.73
595.00 288.00 0.00 2.21 1.74
596.00 288.00 0.00 2.20 1.74
597.00 288.00 0.00 2.19 1.75
598.00 288.00 0.00 2.18 1.75
599.00 288.00 0.00 2.16 1.76
600.00 288.00 0.00 2.15 1.76
601.00 288.00 0.00 2.14 1.76
602.00 288.00 0.00 2.13 1.77
603.00 288.00 0.00 2.12 1.77
604.00 288.00 0.00 2.11 1.77
605.00 288.00 0.00 2.10 1.78
606.00 288.00 0.00 2.09 1.78
607.00 288.00 0.00 2.08 1.79
608.00 288.00 0.00 2.07 1.79
609.00 288.00 0.00 2.06 1.79
610.00 288.00 0.00 2.05 1.80
611.00 288.00 0.00 2.04 1.80
612.00 288.00 0.00 2.03 1.80
613.00 288.00 0.00 2.02 1.81
614.00 288.00 0.00 2.01 1.81
615.00 288.00 0.00 2.00 1.81
616.00 288.00 0.00 1.99 1.82
617.00 288.00 0.00 1.98 1.82
618.00 288.00 0.00 1.97 1.82
619.00 288.00 0.00 1.97 1.83
620.00 288.00 0.00 1.96 1.83
621.00 288.00 0.00 1.95 1.83
622.00 288.00 0.00 1.94 1.83
623.00 288.00 0.00 1.93 1.84
624.00 288.00 0.00 1.93 1.84
625.00 288.00 0.00 1.92 1.84
626.00 288.00 0.00 1.91 1.84
627.00 288.00 0.00 1.90 1.85
628.00 288.00 0.00 1.90 1.85
629.00 288.00 0.00 1.89 1.85
630.00 288.00 0.00 1.88 1.85
631.00 288.00 0.00 1.87 1.86
632.00 288.00 0.00 1.87 1.86
633.00 288.00 0.00 1.86 1.86
634.00 288.00 0.00 1.85 1.86
635.00 288.00 0.00 1.85 1.87
636.00 288.00 0.00 1.84 1.87
637.00 288.00 0.00 1.84 1.87
638.00 288.00 0.00 1.83 1.87
639.00 288.00 0.00 1.82 1.87
640.00 288.00 0.00 1.82 1.88
641.00 288.00 0.00 1.81 1.88
642.00 288.00 0.00 1.81 1.88
643.00 288.00 0.00 1.80 1.88
644.00 288.00 0.00 1.80 1.88
645.00 288.00 0.00 1.79 1.89
646.00 288.00 0.00 1.79 1.89
647.00 288.00 0.00 1.78 1.89
648.00 288.00 0.00 1.78 1.89
649.00 288.00 0.00 1.77 1.89
650.00 288.00 0.00 1.77 1.89
651.00 288.00 0.00 1.77 1.90
652.00 288.00 0.00 1.76 1.90
653.00 288.00 0.00 1.76 1.90
654.00 288.00 0.00 1.75 1.90
655.00 288.00 0.00 1.75 1.90
656.00 288.00 0.00 1.75 1.90
657.00 288.00 0.00 1.74 1.90
658.00 288.00 0.00 1.74 1.90
659.00 288.00 0.00 1.74 1.90
660.00 288.00 0.00 1.73 1.91
661.00 288.00 0.00 1.73 1.91
662.00 288.00 0.00 1.73 1.91
663.00 288.00 0.00 1.73 1.91
664.00 288.00 0.00 1.72 1.91
665.00 288.00 0.00 1.72 1.91
666.00 288.00 0.00 1.72 1.91
667.00 288.00 0.00 1.72 1.91
668.00 288.00 0.00 1.72 1.91
669.00 288.00 0.00 1.72 1.91
670.00 288.00 0.00 1.71 1.91
671.00 288.00 0.00 1.71 1.91
672.00 288.00 0.00 1.71 1.91
673.00 288.00 0.00 1.71 1.91
674.00 288.00 0.00 1.71 1.91
675.00 288.00 0.00 1.71 1.91
676.00 288.00 0.00 1.71 1.92
677.00 288.00 0.00 1.71 1.92
678.00 288.00 0.00 1.71 1.92
679.00 288.00 0.00 1.71 1.92
680.00 288.00 0.00 1.71 1.92
681.00 288.00 0.00 1.71 1.92
682.00 288.00 0.00 1.71 1.92
683.00 288.00 0.00 1.71 1.92
684.00 288.00 0.00 1.71 1.92
685.00 288.00 0.00 1.71 1.92
686.00 288.00 0.00 1.71 1.92
687.00 288.00 0.00 1.71 1.92
688.00 288.00 0.00 1.71 1.92
689.00 288.00 0.00 1.71 1.92
690.00 288.00 0.00 1.71 1.92
691.00 288.00 0.00 1.71 1.92
692.00 288.00 0.00 1.71 1.92
693.00 288.00 0.00 1.71 1.92
694.00 288.00 0.00 1.71 1.92
695.00 288.00 0.00 1.71 1.92
696.00 288.00 0.00 1.71 1.92
697.00 288.00 0.00 1.71 1.92
698.00 288.00 0.00 1.71 1.92
699.00 288.00 0.00 1.71 1.92
700.00 288.00 0.00 1.71 1.92
701.00 288.00 0.00 1.71 1.92
702.00 288.00 0.00 1.71 1.92
703.00 288.00 0.00 1.71 1.92
704.00 288.00 0.00 1.71 1.92
705.00 288.00 0.00 1.71 1.92
706.00 288.00 0.00 1.71 1.92
707.00 288.00 0.00 1.71 1.92
708.00 288.00 0.00 1.71 1.92
709.00 288.00 0.00 1.71 1.92
710.00 288.00 0.00 1.71 1.92
711.00 288.00 0.00 1.71 1.92
712.00 288.00 0.00 1.71 1.92
713.00 288.00 0.00 1.71 1.92
714.00 288.00 0.00 1.71 1.92
715.00 288.00 0.00 1.71 1.92
716.00 288.00 0.00 1.71 1.92
717.00 288.00 0.00 1.71 1.92
718.00 288.00 0.00 1.71 1.92
719.00 288.00 0.00 1.71 1.92
720.00 288.00 0.00 1.71 1.92
721.00 288.00 0.00 1.71 1.92
722.00 288.00 0.00 1.71 1.92
723.00 288.00 0.00 1.71 1.92
724.00 288.00 0.00 1.71 1.92
725.00 288.00 0.00 1.71 1.92
726.00 288.00 0.00 1.71 1.92
727.00 288.00 0.00 1.71 1.92
728.00 288.00 0.00 1.71 1.92
729.00 288.00 0.00 1.71 1.92
730.00 288.00 0.00 1.71 1.92
731.00 288.00 0.00 1.71 1.92
732.00 288.00 0.00 1.71 1.92
733.00 288.00 0.00 1.71 1.92
734.00 288.00 0.00 1.71 1.92
735.00 288.00 0.00 1.71 1.92
736.00 288.00 0.00 1.71 1.92
737.00 288.00 0.00 1.71 1.92
738.00 288.00 0.00 1.71 1.92
739.00 288.00 0.00 1.71 1.92
740.00 288.00 0.00 1.71 1.92
741.00 288.00 0.00 1.71 1.92
742.00 288.00 0.00 1.71 1.92
743.00 288.00 0.00 1.71 1.92
744.00 288.00 0.00 1.71 1.92
745.00 288.00 0.00 1.71 1.92
746.00 288.00 0.00 1.71 1.92
747.00 288.00 0.00 1.71 1.92
748.00 288.00 0.00 1.71 1.92
749.00 288.00 0.00 1.71 1.92
750.00 288.00 0.00 1.71 1.92
751.00 288.00 0.00 1.71 1.92
752.00 288.00 0.00 1.71 1.92
753.00 288.00 0.00 1.71 1.92
754.00 288.00 0.00 1.71 1.92
755.00 288.00 0.00 1.71 1.92
756.00 288.00 0.00 1.71 1.92
757.00 288.00 0.00 1.71 1.92
758.00 288.00 0.00 1.71 1.92
759.00 288.00 0.00 1.71 1.92
760.00 288.00 0.00 1.71 1.92
761.00 288.00 0.00 1.71 1.92
762.00 288.00 0.00 1.71 1.92
763.00 288.00 0.00 1.71 1.92
764.00 288.00 0.00 1.71 1.92
765.00 288.00 0.00 1.71 1.92
766.00 288.00 0.00 1.71 1.92
767.00 288.00 0.00 1.71 1.92
768.00 288.00 0.00 1.71 1.92
769.00 288.00 0.00 1.71 1.92
770.00 288.00 0.00 1.71 1.92
771.00 288.00 0.00 1.71 1.92
772.00 288.00 0.00 1.71 1.92
773.00 288.00 0.00 1.71 1.92
774.00 288.00 0.00 1.71 1.92
775.00 288.00 0.00 1.71 1.92
776.00 288.00 0.00 1.71 1.92
777.00 288.00 0.00 1.71 1.92
778.00 288.00 0.00 1.71 1.92
779.00 288.00 0.00 1.71 1.92
780.00 288.00 0.00 1.71 1.92
781.00 288.00 0.00 1.71 1.92
782.00 288.00 0.00 1.71 1.92
783.00 288.00 0.00 1.71 1.92
784.00 288.00 0.00 1.71 1.92
785.00 288.00 0.00 1.71 1.92
786.00 288.00 0.00 1.71 1.92
787.00 288.00 0.00 1.71 1.92
788.00 288.00 0.00 1.71 1.92
789.00 288.00 0.00 1.71 1.92
790.00 288.00 0.00 1.71 1.92
791.00 288.00 0.00 1.71 1.92
792.00 288.00 0.00 1.71 1.92
793.00 288.00 0.00 1.71 1.92
794.00 288.00 0.00 1.71 1.92
795.00 288.00 0.00 1.71 1.92
796.00 288.00 0.00 1.71 1.92
797.00 288.00 0.00 1.71 1.92
798.00 288.00 0.00 1.71 1.92
799.00 288.00 0.00 1.71 1.92
800.00 288.00 0.00 1.71 1.92
801.00 288.00 0.00 1.71 1.92
802.00 288.00 0.00 1.71 1.92
803.00 288.00 0.00 1.71 1.92
804.00 288.00 0.00 1.71 1.92
805.00 288.00 0.00 1.71 1.92
806.00 288.00 0.00 1.71 1.92
807.00 288.00 0.00 1.71 1.92
808.00 288.00 0.00 1.71 1.92
809.00 288.00 0.00 1.71 1.92
810.00 288.00 0.00 1.71 1.92
811.00 288.00 0.00 1.71 1.92
812.00 288.00 0.00 1.71 1.92
813.00 288.00 0.00 1.71 1.92
814.00 288.00 0.00 1.71 1.92
815.00 288.00 0.00 1.71 1.92
816.00 288.00 0.00 1.71 1.92
817.00 288.00 0.00 1.71 1.92
818.00 288.00 0.00 1.71 1.92
819.00 288.00 0.00 1.71 1.92
820.00 288.00 0.00 1.71 1.92
821.00 288.00 0.00 1.71 1.92
822.00 288.00 0.00 1.71 1.92
823.00 288.00 0.00 1.71 1.92
824.00 288.00 0.00 1.71 1.92
825.00 288.00 0.00 1.71 1.92
826.00 288.00 0.00 1.71 1.92
827.00 288.00 0.00 1.71 1.92
828.00 288.00 0.00 1.71 1.92
829.00 288.00 0.00 1.71 1.92
830.00 288.00 0.00 1.71 1.92
831.00 288.00 0.00 1.71 1.92
