1000.00 288.00 00.00
0.00 288.00 0.00 11.35 4.82
1.00 288.00 0.00 11.35 4.82
2.00 288.00 0.00 11.35 4.82
3.00 288.00 0.00 11.35 4.82
4.00 288.00 0.00 11.35 4.82
5.00 288.00 0.00 11.35 4.82
6.00 288.00 0.00 11.35 4.82
7.00 288.00 0.00 11.35 4.82
8.00 288.00 0.00 11.35 4.82
9.00 288.00 0.00 11.35 4.82
10.00 288.00 0.00 11.35 4.82
11.00 288.00 0.00 11.35 4.82
12.00 288.00 0.00 11.35 4.82
13.00 288.00 0.00 11.35 4.82
14.00 288.00 0.00 11.35 4.82
15.00 288.00 0.00 11.35 4.82
16.00 288.00 0.00 11.35 4.82
17.00 288.00 0.00 11.35 4.82
18.00 288.00 0.00 11.35 4.82
19.00 288.00 0.00 11.35 4.82
20.00 288.00 0.00 11.35 4.82
21.00 288.00 0.00 11.35 4.82
22.00 288.00 0.00 11.35 4.82
23.00 288.00 0.00 11.35 4.82
24.00 288.00 0.00 11.35 4.82
25.00 288.00 0.00 11.35 4.82
26.00 288.00 0.00 11.35 4.82
27.00 288.00 0.00 11.35 4.82
28.00 288.00 0.00 11.35 4.82
29.00 288.00 0.00 11.35 4.82
30.00 288.00 0.00 11.35 4.82
31.00 288.00 0.00 11.35 4.82
32.00 288.00 0.00 11.35 4.82
33.00 288.00 0.00 11.35 4.82
34.00 288.00 0.00 11.35 4.82
35.00 288.00 0.00 11.35 4.82
36.00 288.00 0.00 11.35 4.82
37.00 288.00 0.00 11.35 4.82
38.00 288.00 0.00 11.35 4.82
39.00 288.00 0.00 11.35 4.82
40.00 288.00 0.00 11.35 4.82
41.00 288.00 0.00 11.35 4.82
42.00 288.00 0.00 11.35 4.82
43.00 288.00 0.00 11.35 4.82
44.00 288.00 0.00 11.35 4.82
45.00 288.00 0.00 11.35 4.82
46.00 288.00 0.00 11.35 4.82
47.00 288.00 0.00 11.35 4.82
48.00 288.00 0.00 11.35 4.82
49.00 288.00 0.00 11.35 4.82
50.00 288.00 0.00 11.35 4.82
51.00 288.00 0.00 11.35 4.82
52.00 288.00 0.00 11.35 4.82
53.00 288.00 0.00 11.35 4.82
54.00 288.00 0.00 11.35 4.82
55.00 288.00 0.00 11.35 4.82
56.00 288.00 0.00 11.35 4.82
57.00 288.00 0.00 11.35 4.82
58.00 288.00 0.00 11.35 4.82
59.00 288.00 0.00 11.35 4.82
60.00 288.00 0.00 11.35 4.82
61.00 288.00 0.00 11.35 4.82
62.00 288.00 0.00 11.35 4.82
63.00 288.00 0.00 11.35 4.82
64.00 288.00 0.00 11.35 4.82
65.00 288.00 0.00 11.35 4.82
66.00 288.00 0.00 11.35 4.82
67.00 288.00 0.00 11.35 4.82
68.00 288.00 0.00 11.35 4.82
69.00 288.00 0.00 11.35 4.82
70.00 288.00 0.00 11.35 4.82
71.00 288.00 0.00 11.35 4.82
72.00 288.00 0.00 11.35 4.82
73.00 288.00 0.00 11.35 4.82
74.00 288.00 0.00 11.35 4.82
75.00 288.00 0.00 11.35 4.82
76.00 288.00 0.00 11.35 4.82
77.00 288.00 0.00 11.35 4.82
78.00 288.00 0.00 11.35 4.82
79.00 288.00 0.00 11.35 4.82
80.00 288.00 0.00 11.35 4.82
81.00 288.00 0.00 11.35 4.82
82.00 288.00 0.00 11.35 4.82
83.00 288.00 0.00 11.35 4.82
84.00 288.00 0.00 11.35 4.82
85.00 288.00 0.00 11.35 4.82
86.00 288.00 0.00 11.35 4.82
87.00 288.00 0.00 11.35 4.82
88.00 288.00 0.00 11.35 4.82
89.00 288.00 0.00 11.35 4.82
90.00 288.00 0.00 11.35 4.82
91.00 288.00 0.00 11.35 4.82
92.00 288.00 0.00 11.35 4.82
93.00 288.00 0.00 11.35 4.82
94.00 288.00 0.00 11.35 4.82
95.00 288.00 0.00 11.35 4.82
96.00 288.00 0.00 11.35 4.82
97.00 288.00 0.00 11.35 4.82
98.00 288.00 0.00 11.35 4.82
99.00 288.00 0.00 11.35 4.82
100.00 288.00 0.00 11.35 4.82
101.00 288.00 0.00 11.35 4.82
102.00 288.00 0.00 11.35 4.82
103.00 288.00 0.00 11.35 4.82
104.00 288.00 0.00 11.35 4.82
105.00 288.00 0.00 11.35 4.82
106.00 288.00 0.00 11.35 4.82
107.00 288.00 0.00 11.35 4.82
108.00 288.00 0.00 11.35 4.82
109.00 288.00 0.00 11.35 4.82
110.00 288.00 0.00 11.35 4.82
111.00 288.00 0.00 11.35 4.82
112.00 288.00 0.00 11.35 4.82
113.00 288.00 0.00 11.35 4.82
114.00 288.00 0.00 11.35 4.82
115.00 288.00 0.00 11.35 4.82
116.00 288.00 0.00 11.35 4.82
117.00 288.00 0.00 11.35 4.82
118.00 288.00 0.00 11.35 4.82
119.00 288.00 0.00 11.35 4.82
120.00 288.00 0.00 11.35 4.82
121.00 288.00 0.00 11.35 4.82
122.00 288.00 0.00 11.35 4.82
123.00 288.00 0.00 11.35 4.82
124.00 288.00 0.00 11.35 4.81
125.00 288.00 0.00 11.35 4.81
126.00 288.00 0.00 11.34 4.81
127.00 288.00 0.00 11.34 4.81
128.00 288.00 0.00 11.34 4.81
129.00 288.00 0.00 11.34 4.81
130.00 288.00 0.00 11.34 4.81
131.00 288.00 0.00 11.33 4.80
132.00 288.00 0.00 11.33 4.80
133.00 288.00 0.00 11.33 4.80
134.00 288.00 0.00 11.33 4.80
135.00 288.00 0.00 11.32 4.79
136.00 288.00 0.00 11.32 4.79
137.00 288.00 0.00 11.32 4.79
138.00 288.00 0.00 11.31 4.79
139.00 288.00 0.00 11.31 4.78
140.00 288.00 0.00 11.31 4.78
141.00 288.00 0.00 11.30 4.78
142.00 288.00 0.00 11.30 4.77
143.00 288.00 0.00 11.30 4.77
144.00 288.00 0.00 11.29 4.77
145.00 288.00 0.00 11.29 4.76
146.00 288.00 0.00 11.28 4.76
147.00 288.00 0.00 11.28 4.75
148.00 288.00 0.00 11.27 4.75
149.00 288.00 0.00 11.27 4.74
150.00 288.00 0.00 11.27 4.74
151.00 288.00 0.00 11.26 4.74
152.00 288.00 0.00 11.26 4.73
153.00 288.00 0.00 11.25 4.73
154.00 288.00 0.00 11.24 4.72
155.00 288.00 0.00 11.24 4.72
156.00 288.00 0.00 11.23 4.71
157.00 288.00 0.00 11.23 4.71
158.00 288.00 0.00 11.22 4.70
159.00 288.00 0.00 11.22 4.69
160.00 288.00 0.00 11.21 4.69
161.00 288.00 0.00 11.20 4.68
162.00 288.00 0.00 11.20 4.68
163.00 288.00 0.00 11.19 4.67
164.00 288.00 0.00 11.18 4.66
165.00 288.00 0.00 11.18 4.66
166.00 288.00 0.00 11.17 4.65
167.00 288.00 0.00 11.16 4.65
168.00 288.00 0.00 11.15 4.64
169.00 288.00 0.00 11.15 4.63
170.00 288.00 0.00 11.14 4.62
171.00 288.00 0.00 11.13 4.62
172.00 288.00 0.00 11.12 4.61
173.00 288.00 0.00 11.11 4.60
174.00 288.00 0.00 11.11 4.59
175.00 288.00 0.00 11.10 4.59
176.00 288.00 0.00 11.09 4.58
177.00 288.00 0.00 11.08 4.57
178.00 288.00 0.00 11.07 4.56
179.00 288.00 0.00 11.06 4.55
180.00 288.00 0.00 11.05 4.55
181.00 288.00 0.00 11.05 4.54
182.00 288.00 0.00 11.04 4.53
183.00 288.00 0.00 11.03 4.52
184.00 288.00 0.00 11.02 4.51
185.00 288.00 0.00 11.01 4.50
186.00 288.00 0.00 11.00 4.49
187.00 288.00 0.00 10.99 4.48
188.00 288.00 0.00 10.98 4.47
189.00 288.00 0.00 10.97 4.46
190.00 288.00 0.00 10.96 4.45
191.00 288.00 0.00 10.95 4.44
192.00 288.00 0.00 10.94 4.43
193.00 288.00 0.00 10.92 4.42
194.00 288.00 0.00 10.91 4.41
195.00 288.00 0.00 10.90 4.40
196.00 288.00 0.00 10.89 4.39
197.00 288.00 0.00 10.88 4.38
198.00 288.00 0.00 10.87 4.37
199.00 288.00 0.00 10.86 4.36
200.00 288.00 0.00 10.84 4.35
201.00 288.00 0.00 10.83 4.34
202.00 288.00 0.00 10.82 4.32
203.00 288.00 0.00 10.81 4.31
204.00 288.00 0.00 10.80 4.30
205.00 288.00 0.00 10.78 4.29
206.00 288.00 0.00 10.77 4.28
207.00 288.00 0.00 10.76 4.26
208.00 288.00 0.00 10.74 4.25
209.00 288.00 0.00 10.73 4.24
210.00 288.00 0.00 10.72 4.22
211.00 288.00 0.00 10.71 4.21
212.00 288.00 0.00 10.69 4.20
213.00 288.00 0.00 10.68 4.18
214.00 288.00 0.00 10.66 4.17
215.00 288.00 0.00 10.65 4.16
216.00 288.00 0.00 10.64 4.14
217.00 288.00 0.00 10.62 4.13
218.00 288.00 0.00 10.61 4.12
219.00 288.00 0.00 10.59 4.10
220.00 288.00 0.00 10.58 4.09
221.00 288.00 0.00 10.56 4.07
222.00 288.00 0.00 10.55 4.06
223.00 288.00 0.00 10.53 4.04
224.00 288.00 0.00 10.52 4.03
225.00 288.00 0.00 10.50 4.01
226.00 288.00 0.00 10.49 4.00
227.00 288.00 0.00 10.47 3.98
228.00 288.00 0.00 10.46 3.96
229.00 288.00 0.00 10.44 3.95
230.00 288.00 0.00 10.43 3.93
231.00 288.00 0.00 10.41 3.92
232.00 288.00 0.00 10.39 3.90
233.00 288.00 0.00 10.38 3.88
234.00 288.00 0.00 10.36 3.86
235.00 288.00 0.00 10.34 3.85
236.00 288.00 0.00 10.33 3.83
237.00 288.00 0.00 10.31 3.81
238.00 288.00 0.00 10.29 3.80
239.00 288.00 0.00 10.27 3.78
240.00 288.00 0.00 10.26 3.76
241.00 288.00 0.00 10.24 3.74
242.00 288.00 0.00 10.22 3.72
243.00 288.00 0.00 10.20 3.70
244.00 288.00 0.00 10.19 3.69
245.00 288.00 0.00 10.17 3.67
246.00 288.00 0.00 10.15 3.65
247.00 288.00 0.00 10.13 3.63
248.00 288.00 0.00 10.11 3.61
249.00 288.00 0.00 10.09 3.59
250.00 288.00 0.00 10.08 3.57
251.00 288.00 0.00 10.06 3.55
252.00 288.00 0.00 10.04 3.53
253.00 288.00 0.00 10.02 3.51
254.00 288.00 0.00 10.00 3.49
255.00 288.00 0.00 9.98 3.47
256.00 288.00 0.00 9.96 3.45
257.00 288.00 0.00 9.94 3.43
258.00 288.00 0.00 9.92 3.41
259.00 288.00 0.00 9.90 3.38
260.00 288.00 0.00 9.88 3.36
261.00 288.00 0.00 9.86 3.34
262.00 288.00 0.00 9.84 3.32
263.00 288.00 0.00 9.82 3.30
264.00 288.00 0.00 9.80 3.27
265.00 288.00 0.00 9.78 3.25
266.00 288.00 0.00 9.76 3.23
267.00 288.00 0.00 9.74 3.21
268.00 288.00 0.00 9.71 3.18
269.00 288.00 0.00 9.69 3.16
270.00 288.00 0.00 9.67 3.13
271.00 288.00 0.00 9.65 3.11
272.00 288.00 0.00 9.63 3.09
273.00 288.00 0.00 9.61 3.06
274.00 288.00 0.00 9.58 3.04
275.00 288.00 0.00 9.56 3.01
276.00 288.00 0.00 9.54 2.99
277.00 288.00 0.00 9.52 2.96
278.00 288.00 0.00 9.49 2.94
279.00 288.00 0.00 9.47 2.91
280.00 288.00 0.00 9.45 2.89
281.00 288.00 0.00 9.43 2.86
282.00 288.00 0.00 9.40 2.84
283.00 288.00 0.00 9.38 2.81
284.00 288.00 0.00 9.36 2.78
285.00 288.00 0.00 9.33 2.76
286.00 288.00 0.00 9.31 2.73
287.00 288.00 0.00 9.28 2.70
288.00 288.00 0.00 9.26 2.68
289.00 288.00 0.00 9.24 2.65
290.00 288.00 0.00 9.21 2.62
291.00 288.00 0.00 9.19 2.59
292.00 288.00 0.00 9.16 2.57
293.00 288.00 0.00 9.14 2.54
294.00 288.00 0.00 9.11 2.51
295.00 288.00 0.00 9.09 2.48
296.00 288.00 0.00 9.06 2.45
297.00 288.00 0.00 9.04 2.42
298.00 288.00 0.00 9.01 2.39
299.00 288.00 0.00 8.99 2.37
300.00 288.00 0.00 8.96 2.34
301.00 288.00 0.00 8.94 2.31
302.00 288.00 0.00 8.91 2.28
303.00 288.00 0.00 8.89 2.25
304.00 288.00 0.00 8.86 2.22
305.00 288.00 0.00 8.84 2.19
306.00 288.00 0.00 8.81 2.16
307.00 288.00 0.00 8.79 2.13
308.00 288.00 0.00 8.76 2.10
309.00 288.00 0.00 8.74 2.08
310.00 288.00 0.00 8.71 2.05
311.00 288.00 0.00 8.69 2.02
312.00 288.00 0.00 8.66 1.99
313.00 288.00 0.00 8.64 1.96
314.00 288.00 0.00 8.61 1.93
315.00 288.00 0.00 8.59 1.90
316.00 288.00 0.00 8.56 1.87
317.00 288.00 0.00 8.54 1.84
318.00 288.00 0.00 8.51 1.81
319.00 288.00 0.00 8.49 1.78
320.00 288.00 0.00 8.46 1.75
321.00 288.00 0.00 8.44 1.72
322.00 288.00 0.00 8.41 1.69
323.00 288.00 0.00 8.39 1.66
324.00 288.00 0.00 8.36 1.63
325.00 288.00 0.00 8.34 1.60
326.00 288.00 0.00 8.31 1.57
327.00 288.00 0.00 8.29 1.54
328.00 288.00 0.00 8.26 1.52
329.00 288.00 0.00 8.24 1.49
330.00 288.00 0.00 8.21 1.46
331.00 288.00 0.00 8.19 1.43
332.00 288.00 0.00 8.16 1.40
333.00 288.00 0.00 8.14 1.37
334.00 288.00 0.00 8.11 1.34
335.00 288.00 0.00 8.09 1.31
336.00 288.00 0.00 8.06 1.28
337.00 288.00 0.00 8.04 1.25
338.00 288.00 0.00 8.01 1.22
339.00 288.00 0.00 7.99 1.19
340.00 288.00 0.00 7.96 1.16
341.00 288.00 0.00 7.94 1.13
342.00 288.00 0.00 7.91 1.10
343.00 288.00 0.00 7.89 1.06
344.00 288.00 0.00 7.86 1.03
345.00 288.00 0.00 7.84 1.00
346.00 288.00 0.00 7.81 0.97
347.00 288.00 0.00 7.79 0.94
348.00 288.00 0.00 7.76 0.91
349.00 288.00 0.00 7.74 0.88
350.00 288.00 0.00 7.71 0.85
351.00 288.00 0.00 7.69 0.82
352.00 288.00 0.00 7.66 0.79
353.00 288.00 0.00 7.64 0.76
354.00 288.00 0.00 7.61 0.73
355.00 288.00 0.00 7.59 0.70
356.00 288.00 0.00 7.56 0.67
357.00 288.00 0.00 7.54 0.64
358.00 288.00 0.00 7.51 0.61
359.00 288.00 0.00 7.49 0.58
360.00 288.00 0.00 7.46 0.55
361.00 288.00 0.00 7.44 0.52
362.00 288.00 0.00 7.41 0.49
363.00 288.00 0.00 7.39 0.46
364.00 288.00 0.00 7.36 0.43
365.00 288.00 0.00 7.34 0.40
366.00 288.00 0.00 7.31 0.37
367.00 288.00 0.00 7.29 0.34
368.00 288.00 0.00 7.26 0.31
369.00 288.00 0.00 7.24 0.27
370.00 288.00 0.00 7.21 0.24
371.00 288.00 0.00 7.19 0.21
372.00 288.00 0.00 7.16 0.18
373.00 288.00 0.00 7.14 0.15
374.00 288.00 0.00 7.11 0.12
375.00 288.00 0.00 7.09 0.09
376.00 288.00 0.00 7.06 0.06
377.00 288.00 0.00 7.04 0.03
378.00 288.00 0.00 7.01 0.00
379.00 288.00 0.00 6.99 -0.03
380.00 288.00 0.00 6.96 -0.06
381.00 288.00 0.00 6.94 -0.09
382.00 288.00 0.00 6.91 -0.12
383.00 288.00 0.00 6.89 -0.15
384.00 288.00 0.00 6.86 -0.18
385.00 288.00 0.00 6.84 -0.21
386.00 288.00 0.00 6.81 -0.24
387.00 288.00 0.00 6.79 -0.27
388.00 288.00 0.00 6.76 -0.31
389.00 288.00 0.00 6.74 -0.34
390.00 288.00 0.00 6.71 -0.37
391.00 288.00 0.00 6.69 -0.40
392.00 288.00 0.00 6.66 -0.43
393.00 288.00 0.00 6.64 -0.46
394.00 288.00 0.00 6.61 -0.49
395.00 288.00 0.00 6.59 -0.52
396.00 288.00 0.00 6.56 -0.55
397.00 288.00 0.00 6.54 -0.58
398.00 288.00 0.00 6.51 -0.61
399.00 288.00 0.00 6.49 -0.64
400.00 288.00 0.00 6.46 -0.67
401.00 288.00 0.00 6.44 -0.70
402.00 288.00 0.00 6.41 -0.73
403.00 288.00 0.00 6.39 -0.76
404.00 288.00 0.00 6.36 -0.79
405.00 288.00 0.00 6.34 -0.82
406.00 288.00 0.00 6.31 -0.85
407.00 288.00 0.00 6.29 -0.88
408.00 288.00 0.00 6.26 -0.91
409.00 288.00 0.00 6.24 -0.94
410.00 288.00 0.00 6.21 -0.97
411.00 288.00 0.00 6.19 -1.00
412.00 288.00 0.00 6.16 -1.03
413.00 288.00 0.00 6.14 -1.06
414.00 288.00 0.00 6.11 -1.10
415.00 288.00 0.00 6.09 -1.13
416.00 288.00 0.00 6.06 -1.16
417.00 288.00 0.00 6.04 -1.19
418.00 288.00 0.00 6.01 -1.22
419.00 288.00 0.00 5.99 -1.25
420.00 288.00 0.00 5.96 -1.28
421.00 288.00 0.00 5.94 -1.31
422.00 288.00 0.00 5.91 -1.34
423.00 288.00 0.00 5.89 -1.37
424.00 288.00 0.00 5.86 -1.40
425.00 288.00 0.00 5.84 -1.43
426.00 288.00 0.00 5.81 -1.46
427.00 288.00 0.00 5.79 -1.49
428.00 288.00 0.00 5.76 -1.52
429.00 288.00 0.00 5.74 -1.54
430.00 288.00 0.00 5.71 -1.57
431.00 288.00 0.00 5.69 -1.60
432.00 288.00 0.00 5.66 -1.63
433.00 288.00 0.00 5.64 -1.66
434.00 288.00 0.00 5.61 -1.69
435.00 288.00 0.00 5.59 -1.72
436.00 288.00 0.00 5.56 -1.75
437.00 288.00 0.00 5.54 -1.78
438.00 288.00 0.00 5.51 -1.81
439.00 288.00 0.00 5.49 -1.84
440.00 288.00 0.00 5.46 -1.87
441.00 288.00 0.00 5.44 -1.90
442.00 288.00 0.00 5.41 -1.93
443.00 288.00 0.00 5.39 -1.96
444.00 288.00 0.00 5.36 -1.99
445.00 288.00 0.00 5.34 -2.02
446.00 288.00 0.00 5.31 -2.05
447.00 288.00 0.00 5.29 -2.08
448.00 288.00 0.00 5.26 -2.10
449.00 288.00 0.00 5.24 -2.13
450.00 288.00 0.00 5.21 -2.16
451.00 288.00 0.00 5.19 -2.19
452.00 288.00 0.00 5.16 -2.22
453.00 288.00 0.00 5.14 -2.25
454.00 288.00 0.00 5.11 -2.28
455.00 288.00 0.00 5.09 -2.31
456.00 288.00 0.00 5.06 -2.34
457.00 288.00 0.00 5.04 -2.37
458.00 288.00 0.00 5.01 -2.39
459.00 288.00 0.00 4.99 -2.42
460.00 288.00 0.00 4.96 -2.45
461.00 288.00 0.00 4.94 -2.48
462.00 288.00 0.00 4.91 -2.51
463.00 288.00 0.00 4.89 -2.54
464.00 288.00 0.00 4.86 -2.57
465.00 288.00 0.00 4.84 -2.59
466.00 288.00 0.00 4.81 -2.62
467.00 288.00 0.00 4.79 -2.65
468.00 288.00 0.00 4.76 -2.68
469.00 288.00 0.00 4.74 -2.70
470.00 288.00 0.00 4.72 -2.73
471.00 288.00 0.00 4.69 -2.76
472.00 288.00 0.00 4.67 -2.78
473.00 288.00 0.00 4.64 -2.81
474.00 288.00 0.00 4.62 -2.84
475.00 288.00 0.00 4.60 -2.86
476.00 288.00 0.00 4.57 -2.89
477.00 288.00 0.00 4.55 -2.91
478.00 288.00 0.00 4.53 -2.94
479.00 288.00 0.00 4.51 -2.96
480.00 288.00 0.00 4.48 -2.99
481.00 288.00 0.00 4.46 -3.01
482.00 288.00 0.00 4.44 -3.04
483.00 288.00 0.00 4.42 -3.06
484.00 288.00 0.00 4.39 -3.09
485.00 288.00 0.00 4.37 -3.11
486.00 288.00 0.00 4.35 -3.13
487.00 288.00 0.00 4.33 -3.16
488.00 288.00 0.00 4.31 -3.18
489.00 288.00 0.00 4.29 -3.21
490.00 288.00 0.00 4.26 -3.23
491.00 288.00 0.00 4.24 -3.25
492.00 288.00 0.00 4.22 -3.27
493.00 288.00 0.00 4.20 -3.30
494.00 288.00 0.00 4.18 -3.32
495.00 288.00 0.00 4.16 -3.34
496.00 288.00 0.00 4.14 -3.36
497.00 288.00 0.00 4.12 -3.38
498.00 288.00 0.00 4.10 -3.41
499.00 288.00 0.00 4.08 -3.43
500.00 288.00 0.00 4.06 -3.45
501.00 288.00 0.00 4.04 -3.47
502.00 288.00 0.00 4.02 -3.49
503.00 288.00 0.00 4.00 -3.51
504.00 288.00 0.00 3.98 -3.53
505.00 288.00 0.00 3.96 -3.55
506.00 288.00 0.00 3.94 -3.57
507.00 288.00 0.00 3.92 -3.59
508.00 288.00 0.00 3.91 -3.61
509.00 288.00 0.00 3.89 -3.63
510.00 288.00 0.00 3.87 -3.65
511.00 288.00 0.00 3.85 -3.67
512.00 288.00 0.00 3.83 -3.69
513.00 288.00 0.00 3.81 -3.70
514.00 288.00 0.00 3.80 -3.72
515.00 288.00 0.00 3.78 -3.74
516.00 288.00 0.00 3.76 -3.76
517.00 288.00 0.00 3.74 -3.78
518.00 288.00 0.00 3.73 -3.80
519.00 288.00 0.00 3.71 -3.81
520.00 288.00 0.00 3.69 -3.83
521.00 288.00 0.00 3.67 -3.85
522.00 288.00 0.00 3.66 -3.86
523.00 288.00 0.00 3.64 -3.88
524.00 288.00 0.00 3.62 -3.90
525.00 288.00 0.00 3.61 -3.92
526.00 288.00 0.00 3.59 -3.93
527.00 288.00 0.00 3.57 -3.95
528.00 288.00 0.00 3.56 -3.96
529.00 288.00 0.00 3.54 -3.98
530.00 288.00 0.00 3.53 -4.00
531.00 288.00 0.00 3.51 -4.01
532.00 288.00 0.00 3.50 -4.03
533.00 288.00 0.00 3.48 -4.04
534.00 288.00 0.00 3.47 -4.06
535.00 288.00 0.00 3.45 -4.07
536.00 288.00 0.00 3.44 -4.09
537.00 288.00 0.00 3.42 -4.10
538.00 288.00 0.00 3.41 -4.12
539.00 288.00 0.00 3.39 -4.13
540.00 288.00 0.00 3.38 -4.14
541.00 288.00 0.00 3.36 -4.16
542.00 288.00 0.00 3.35 -4.17
543.00 288.00 0.00 3.34 -4.18
544.00 288.00 0.00 3.32 -4.20
545.00 288.00 0.00 3.31 -4.21
546.00 288.00 0.00 3.29 -4.22
547.00 288.00 0.00 3.28 -4.24
548.00 288.00 0.00 3.27 -4.25
549.00 288.00 0.00 3.26 -4.26
550.00 288.00 0.00 3.24 -4.28
551.00 288.00 0.00 3.23 -4.29
552.00 288.00 0.00 3.22 -4.30
553.00 288.00 0.00 3.20 -4.31
554.00 288.00 0.00 3.19 -4.32
555.00 288.00 0.00 3.18 -4.34
556.00 288.00 0.00 3.17 -4.35
557.00 288.00 0.00 3.16 -4.36
558.00 288.00 0.00 3.14 -4.37
559.00 288.00 0.00 3.13 -4.38
560.00 288.00 0.00 3.12 -4.39
561.00 288.00 0.00 3.11 -4.40
562.00 288.00 0.00 3.10 -4.41
563.00 288.00 0.00 3.09 -4.42
564.00 288.00 0.00 3.08 -4.43
565.00 288.00 0.00 3.06 -4.44
566.00 288.00 0.00 3.05 -4.45
567.00 288.00 0.00 3.04 -4.46
568.00 288.00 0.00 3.03 -4.47
569.00 288.00 0.00 3.02 -4.48
570.00 288.00 0.00 3.01 -4.49
571.00 288.00 0.00 3.00 -4.50
572.00 288.00 0.00 2.99 -4.51
573.00 288.00 0.00 2.98 -4.52
574.00 288.00 0.00 2.97 -4.53
575.00 288.00 0.00 2.96 -4.54
576.00 288.00 0.00 2.95 -4.55
577.00 288.00 0.00 2.95 -4.55
578.00 288.00 0.00 2.94 -4.56
579.00 288.00 0.00 2.93 -4.57
580.00 288.00 0.00 2.92 -4.58
581.00 288.00 0.00 2.91 -4.59
582.00 288.00 0.00 2.90 -4.59
583.00 288.00 0.00 2.89 -4.60
584.00 288.00 0.00 2.89 -4.61
585.00 288.00 0.00 2.88 -4.62
586.00 288.00 0.00 2.87 -4.62
587.00 288.00 0.00 2.86 -4.63
588.00 288.00 0.00 2.85 -4.64
589.00 288.00 0.00 2.85 -4.65
590.00 288.00 0.00 2.84 -4.65
591.00 288.00 0.00 2.83 -4.66
592.00 288.00 0.00 2.82 -4.66
593.00 288.00 0.00 2.82 -4.67
594.00 288.00 0.00 2.81 -4.68
595.00 288.00 0.00 2.80 -4.68
596.00 288.00 0.00 2.80 -4.69
597.00 288.00 0.00 2.79 -4.69
598.00 288.00 0.00 2.78 -4.70
599.00 288.00 0.00 2.78 -4.71
600.00 288.00 0.00 2.77 -4.71
601.00 288.00 0.00 2.77 -4.72
602.00 288.00 0.00 2.76 -4.72
603.00 288.00 0.00 2.76 -4.73
604.00 288.00 0.00 2.75 -4.73
605.00 288.00 0.00 2.74 -4.74
606.00 288.00 0.00 2.74 -4.74
607.00 288.00 0.00 2.73 -4.74
608.00 288.00 0.00 2.73 -4.75
609.00 288.00 0.00 2.73 -4.75
610.00 288.00 0.00 2.72 -4.76
611.00 288.00 0.00 2.72 -4.76
612.00 288.00 0.00 2.71 -4.77
613.00 288.00 0.00 2.71 -4.77
614.00 288.00 0.00 2.70 -4.77
615.00 288.00 0.00 2.70 -4.78
616.00 288.00 0.00 2.70 -4.78
617.00 288.00 0.00 2.69 -4.78
618.00 288.00 0.00 2.69 -4.79
619.00 288.00 0.00 2.69 -4.79
620.00 288.00 0.00 2.68 -4.79
621.00 288.00 0.00 2.68 -4.79
622.00 288.00 0.00 2.68 -4.80
623.00 288.00 0.00 2.67 -4.80
624.00 288.00 0.00 2.67 -4.80
625.00 288.00 0.00 2.67 -4.80
626.00 288.00 0.00 2.67 -4.81
627.00 288.00 0.00 2.66 -4.81
628.00 288.00 0.00 2.66 -4.81
629.00 288.00 0.00 2.66 -4.81
630.00 288.00 0.00 2.66 -4.81
631.00 288.00 0.00 2.66 -4.81
632.00 288.00 0.00 2.65 -4.81
633.00 288.00 0.00 2.65 -4.82
634.00 288.00 0.00 2.65 -4.82
635.00 288.00 0.00 2.65 -4.82
636.00 288.00 0.00 2.65 -4.82
637.00 288.00 0.00 2.65 -4.82
638.00 288.00 0.00 2.65 -4.82
639.00 288.00 0.00 2.65 -4.82
640.00 288.00 0.00 2.65 -4.82
641.00 288.00 0.00 2.65 -4.82
642.00 288.00 0.00 2.65 -4.82
643.00 288.00 0.00 2.65 -4.82
644.00 288.00 0.00 2.65 -4.82
645.00 288.00 0.00 2.65 -4.82
646.00 288.00 0.00 2.65 -4.82
647.00 288.00 0.00 2.65 -4.82
648.00 288.00 0.00 2.65 -4.82
649.00 288.00 0.00 2.65 -4.82
650.00 288.00 0.00 2.65 -4.82
651.00 288.00 0.00 2.65 -4.82
652.00 288.00 0.00 2.65 -4.82
653.00 288.00 0.00 2.65 -4.82
654.00 288.00 0.00 2.65 -4.82
655.00 288.00 0.00 2.65 -4.82
656.00 288.00 0.00 2.65 -4.82
657.00 288.00 0.00 2.65 -4.82
658.00 288.00 0.00 2.65 -4.82
659.00 288.00 0.00 2.65 -4.82
660.00 288.00 0.00 2.65 -4.82
661.00 288.00 0.00 2.65 -4.82
662.00 288.00 0.00 2.65 -4.82
663.00 288.00 0.00 2.65 -4.82
664.00 288.00 0.00 2.65 -4.82
665.00 288.00 0.00 2.65 -4.82
666.00 288.00 0.00 2.65 -4.82
667.00 288.00 0.00 2.65 -4.82
668.00 288.00 0.00 2.65 -4.82
669.00 288.00 0.00 2.65 -4.82
670.00 288.00 0.00 2.65 -4.82
671.00 288.00 0.00 2.65 -4.82
672.00 288.00 0.00 2.65 -4.82
673.00 288.00 0.00 2.65 -4.82
674.00 288.00 0.00 2.65 -4.82
675.00 288.00 0.00 2.65 -4.82
676.00 288.00 0.00 2.65 -4.82
677.00 288.00 0.00 2.65 -4.82
678.00 288.00 0.00 2.65 -4.82
679.00 288.00 0.00 2.65 -4.82
680.00 288.00 0.00 2.65 -4.82
681.00 288.00 0.00 2.65 -4.82
682.00 288.00 0.00 2.65 -4.82
683.00 288.00 0.00 2.65 -4.82
684.00 288.00 0.00 2.65 -4.82
685.00 288.00 0.00 2.65 -4.82
686.00 288.00 0.00 2.65 -4.82
687.00 288.00 0.00 2.65 -4.82
688.00 288.00 0.00 2.65 -4.82
689.00 288.00 0.00 2.65 -4.82
690.00 288.00 0.00 2.65 -4.82
691.00 288.00 0.00 2.65 -4.82
692.00 288.00 0.00 2.65 -4.82
693.00 288.00 0.00 2.65 -4.82
694.00 288.00 0.00 2.65 -4.82
695.00 288.00 0.00 2.65 -4.82
696.00 288.00 0.00 2.65 -4.82
697.00 288.00 0.00 2.65 -4.82
698.00 288.00 0.00 2.65 -4.82
699.00 288.00 0.00 2.65 -4.82
700.00 288.00 0.00 2.65 -4.82
701.00 288.00 0.00 2.65 -4.82
702.00 288.00 0.00 2.65 -4.82
703.00 288.00 0.00 2.65 -4.82
704.00 288.00 0.00 2.65 -4.82
705.00 288.00 0.00 2.65 -4.82
706.00 288.00 0.00 2.65 -4.82
707.00 288.00 0.00 2.65 -4.82
708.00 288.00 0.00 2.65 -4.82
709.00 288.00 0.00 2.65 -4.82
710.00 288.00 0.00 2.65 -4.82
711.00 288.00 0.00 2.65 -4.82
712.00 288.00 0.00 2.65 -4.82
713.00 288.00 0.00 2.65 -4.82
714.00 288.00 0.00 2.65 -4.82
715.00 288.00 0.00 2.65 -4.82
716.00 288.00 0.00 2.65 -4.82
717.00 288.00 0.00 2.65 -4.82
718.00 288.00 0.00 2.65 -4.82
719.00 288.00 0.00 2.65 -4.82
720.00 288.00 0.00 2.65 -4.82
721.00 288.00 0.00 2.65 -4.82
722.00 288.00 0.00 2.65 -4.82
723.00 288.00 0.00 2.65 -4.82
724.00 288.00 0.00 2.65 -4.82
725.00 288.00 0.00 2.65 -4.82
726.00 288.00 0.00 2.65 -4.82
727.00 288.00 0.00 2.65 -4.82
728.00 288.00 0.00 2.65 -4.82
729.00 288.00 0.00 2.65 -4.82
730.00 288.00 0.00 2.65 -4.82
731.00 288.00 0.00 2.65 -4.82
732.00 288.00 0.00 2.65 -4.82
733.00 288.00 0.00 2.65 -4.82
734.00 288.00 0.00 2.65 -4.82
735.00 288.00 0.00 2.65 -4.82
736.00 288.00 0.00 2.65 -4.82
737.00 288.00 0.00 2.65 -4.82
738.00 288.00 0.00 2.65 -4.82
739.00 288.00 0.00 2.65 -4.82
740.00 288.00 0.00 2.65 -4.82
741.00 288.00 0.00 2.65 -4.82
742.00 288.00 0.00 2.65 -4.82
743.00 288.00 0.00 2.65 -4.82
744.00 288.00 0.00 2.65 -4.82
745.00 288.00 0.00 2.65 -4.82
746.00 288.00 0.00 2.65 -4.82
747.00 288.00 0.00 2.65 -4.82
748.00 288.00 0.00 2.65 -4.82
749.00 288.00 0.00 2.65 -4.82
750.00 288.00 0.00 2.65 -4.82
751.00 288.00 0.00 2.65 -4.82
752.00 288.00 0.00 2.65 -4.82
753.00 288.00 0.00 2.65 -4.82
754.00 288.00 0.00 2.65 -4.82
755.00 288.00 0.00 2.65 -4.82
756.00 288.00 0.00 2.65 -4.82
757.00 288.00 0.00 2.65 -4.82
758.00 288.00 0.00 2.65 -4.82
759.00 288.00 0.00 2.65 -4.82
760.00 288.00 0.00 2.65 -4.82
761.00 288.00 0.00 2.65 -4.82
762.00 288.00 0.00 2.65 -4.82
763.00 288.00 0.00 2.65 -4.82
764.00 288.00 0.00 2.65 -4.82
765.00 288.00 0.00 2.65 -4.82
766.00 288.00 0.00 2.65 -4.82
767.00 288.00 0.00 2.65 -4.82
768.00 288.00 0.00 2.65 -4.82
769.00 288.00 0.00 2.65 -4.82
770.00 288.00 0.00 2.65 -4.82
771.00 288.00 0.00 2.65 -4.82
772.00 288.00 0.00 2.65 -4.82
773.00 288.00 0.00 2.65 -4.82
774.00 288.00 0.00 2.65 -4.82
775.00 288.00 0.00 2.65 -4.82
776.00 288.00 0.00 2.65 -4.82
777.00 288.00 0.00 2.65 -4.82
778.00 288.00 0.00 2.65 -4.82
779.00 288.00 0.00 2.65 -4.82
780.00 288.00 0.00 2.65 -4.82
781.00 288.00 0.00 2.65 -4.82
782.00 288.00 0.00 2.65 -4.82
783.00 288.00 0.00 2.65 -4.82
784.00 288.00 0.00 2.65 -4.82
785.00 288.00 0.00 2.65 -4.82
786.00 288.00 0.00 2.65 -4.82
787.00 288.00 0.00 2.65 -4.82
788.00 288.00 0.00 2.65 -4.82
789.00 288.00 0.00 2.65 -4.82
790.00 288.00 0.00 2.65 -4.82
791.00 288.00 0.00 2.65 -4.82
792.00 288.00 0.00 2.65 -4.82
793.00 288.00 0.00 2.65 -4.82
794.00 288.00 0.00 2.65 -4.82
795.00 288.00 0.00 2.65 -4.82
796.00 288.00 0.00 2.65 -4.82
797.00 288.00 0.00 2.65 -4.82
798.00 288.00 0.00 2.65 -4.82
799.00 288.00 0.00 2.65 -4.82
800.00 288.00 0.00 2.65 -4.82
801.00 288.00 0.00 2.65 -4.82
802.00 288.00 0.00 2.65 -4.82
803.00 288.00 0.00 2.65 -4.82
804.00 288.00 0.00 2.65 -4.82
805.00 288.00 0.00 2.65 -4.82
806.00 288.00 0.00 2.65 -4.82
807.00 288.00 0.00 2.65 -4.82
808.00 288.00 0.00 2.65 -4.82
809.00 288.00 0.00 2.65 -4.82
810.00 288.00 0.00 2.65 -4.82
811.00 288.00 0.00 2.65 -4.82
812.00 288.00 0.00 2.65 -4.82
813.00 288.00 0.00 2.65 -4.82
814.00 288.00 0.00 2.65 -4.82
815.00 288.00 0.00 2.65 -4.82
816.00 288.00 0.00 2.65 -4.82
817.00 288.00 0.00 2.65 -4.82
818.00 288.00 0.00 2.65 -4.82
819.00 288.00 0.00 2.65 -4.82
820.00 288.00 0.00 2.65 -4.82
821.00 288.00 0.00 2.65 -4.82
822.00 288.00 0.00 2.65 -4.82
823.00 288.00 0.00 2.65 -4.82
824.00 288.00 0.00 2.65 -4.82
825.00 288.00 0.00 2.65 -4.82
826.00 288.00 0.00 2.65 -4.82
827.00 288.00 0.00 2.65 -4.82
828.00 288.00 0.00 2.65 -4.82
829.00 288.00 0.00 2.65 -4.82
830.00 288.00 0.00 2.65 -4.82
831.00 288.00 0.00 2.65 -4.82
