1000.00 288.00 00.00
0.00 288.00 0.00 5.26 -2.09
1.00 288.00 0.00 5.26 -2.09
2.00 288.00 0.00 5.26 -2.09
3.00 288.00 0.00 5.26 -2.09
4.00 288.00 0.00 5.26 -2.09
5.00 288.00 0.00 5.26 -2.09
6.00 288.00 0.00 5.26 -2.09
7.00 288.00 0.00 5.26 -2.09
8.00 288.00 0.00 5.26 -2.09
9.00 288.00 0.00 5.26 -2.09
10.00 288.00 0.00 5.26 -2.09
11.00 288.00 0.00 5.26 -2.09
12.00 288.00 0.00 5.26 -2.09
13.00 288.00 0.00 5.26 -2.09
14.00 288.00 0.00 5.26 -2.09
15.00 288.00 0.00 5.26 -2.09
16.00 288.00 0.00 5.26 -2.09
17.00 288.00 0.00 5.26 -2.09
18.00 288.00 0.00 5.26 -2.09
19.00 288.00 0.00 5.26 -2.09
20.00 288.00 0.00 5.26 -2.09
21.00 288.00 0.00 5.26 -2.09
22.00 288.00 0.00 5.26 -2.09
23.00 288.00 0.00 5.26 -2.09
24.00 288.00 0.00 5.26 -2.09
25.00 288.00 0.00 5.26 -2.09
26.00 288.00 0.00 5.26 -2.09
27.00 288.00 0.00 5.26 -2.09
28.00 288.00 0.00 5.26 -2.09
29.00 288.00 0.00 5.26 -2.09
30.00 288.00 0.00 5.26 -2.09
31.00 288.00 0.00 5.26 -2.09
32.00 288.00 0.00 5.26 -2.09
33.00 288.00 0.00 5.26 -2.09
34.00 288.00 0.00 5.26 -2.09
35.00 288.00 0.00 5.26 -2.09
36.00 288.00 0.00 5.26 -2.09
37.00 288.00 0.00 5.26 -2.09
38.00 288.00 0.00 5.26 -2.09
39.00 288.00 0.00 5.26 -2.09
40.00 288.00 0.00 5.26 -2.09
41.00 288.00 0.00 5.26 -2.09
42.00 288.00 0.00 5.26 -2.09
43.00 288.00 0.00 5.26 -2.09
44.00 288.00 0.00 5.26 -2.09
45.00 288.00 0.00 5.26 -2.09
46.00 288.00 0.00 5.26 -2.09
47.00 288.00 0.00 5.26 -2.09
48.00 288.00 0.00 5.26 -2.09
49.00 288.00 0.00 5.26 -2.09
50.00 288.00 0.00 5.26 -2.09
51.00 288.00 0.00 5.26 -2.09
52.00 288.00 0.00 5.26 -2.09
53.00 288.00 0.00 5.26 -2.09
54.00 288.00 0.00 5.26 -2.09
55.00 288.00 0.00 5.26 -2.09
56.00 288.00 0.00 5.26 -2.09
57.00 288.00 0.00 5.26 -2.09
58.00 288.00 0.00 5.26 -2.09
59.00 288.00 0.00 5.26 -2.09
60.00 288.00 0.00 5.26 -2.09
61.00 288.00 0.00 5.26 -2.09
62.00 288.00 0.00 5.26 -2.09
63.00 288.00 0.00 5.26 -2.09
64.00 288.00 0.00 5.26 -2.09
65.00 288.00 0.00 5.26 -2.09
66.00 288.00 0.00 5.26 -2.09
67.00 288.00 0.00 5.26 -2.09
68.00 288.00 0.00 5.26 -2.09
69.00 288.00 0.00 5.26 -2.09
70.00 288.00 0.00 5.26 -2.09
71.00 288.00 0.00 5.26 -2.09
72.00 288.00 0.00 5.26 -2.09
73.00 288.00 0.00 5.26 -2.09
74.00 288.00 0.00 5.26 -2.09
75.00 288.00 0.00 5.26 -2.09
76.00 288.00 0.00 5.26 -2.09
77.00 288.00 0.00 5.26 -2.09
78.00 288.00 0.00 5.26 -2.09
79.00 288.00 0.00 5.26 -2.09
80.00 288.00 0.00 5.26 -2.09
81.00 288.00 0.00 5.26 -2.09
82.00 288.00 0.00 5.26 -2.09
83.00 288.00 0.00 5.26 -2.09
84.00 288.00 0.00 5.26 -2.09
85.00 288.00 0.00 5.26 -2.09
86.00 288.00 0.00 5.26 -2.09
87.00 288.00 0.00 5.26 -2.09
88.00 288.00 0.00 5.26 -2.09
89.00 288.00 0.00 5.26 -2.09
90.00 288.00 0.00 5.26 -2.09
91.00 288.00 0.00 5.26 -2.09
92.00 288.00 0.00 5.26 -2.09
93.00 288.00 0.00 5.26 -2.09
94.00 288.00 0.00 5.26 -2.09
95.00 288.00 0.00 5.26 -2.09
96.00 288.00 0.00 5.26 -2.09
97.00 288.00 0.00 5.26 -2.09
98.00 288.00 0.00 5.26 -2.09
99.00 288.00 0.00 5.26 -2.09
100.00 288.00 0.00 5.26 -2.09
101.00 288.00 0.00 5.26 -2.09
102.00 288.00 0.00 5.26 -2.09
103.00 288.00 0.00 5.26 -2.09
104.00 288.00 0.00 5.26 -2.09
105.00 288.00 0.00 5.26 -2.09
106.00 288.00 0.00 5.26 -2.09
107.00 288.00 0.00 5.26 -2.09
108.00 288.00 0.00 5.26 -2.09
109.00 288.00 0.00 5.26 -2.09
110.00 288.00 0.00 5.26 -2.09
111.00 288.00 0.00 5.26 -2.09
112.00 288.00 0.00 5.26 -2.09
113.00 288.00 0.00 5.26 -2.09
114.00 288.00 0.00 5.26 -2.09
115.00 288.00 0.00 5.26 -2.09
116.00 288.00 0.00 5.26 -2.09
117.00 288.00 0.00 5.26 -2.09
118.00 288.00 0.00 5.26 -2.09
119.00 288.00 0.00 5.26 -2.09
120.00 288.00 0.00 5.26 -2.09
121.00 288.00 0.00 5.26 -2.09
122.00 288.00 0.00 5.26 -2.09
123.00 288.00 0.00 5.26 -2.09
124.00 288.00 0.00 5.26 -2.09
125.00 288.00 0.00 5.26 -2.09
126.00 288.00 0.00 5.26 -2.09
127.00 288.00 0.00 5.26 -2.09
128.00 288.00 0.00 5.26 -2.09
129.00 288.00 0.00 5.26 -2.09
130.00 288.00 0.00 5.27 -2.09
131.00 288.00 0.00 5.27 -2.09
132.00 288.00 0.00 5.27 -2.08
133.00 288.00 0.00 5.27 -2.08
134.00 288.00 0.00 5.27 -2.08
135.00 288.00 0.00 5.27 -2.08
136.00 288.00 0.00 5.27 -2.08
137.00 288.00 0.00 5.27 -2.08
138.00 288.00 0.00 5.27 -2.08
139.00 288.00 0.00 5.28 -2.07
140.00 288.00 0.00 5.28 -2.07
141.00 288.00 0.00 5.28 -2.07
142.00 288.00 0.00 5.28 -2.07
143.00 288.00 0.00 5.28 -2.07
144.00 288.00 0.00 5.28 -2.07
145.00 288.00 0.00 5.28 -2.06
146.00 288.00 0.00 5.29 -2.06
147.00 288.00 0.00 5.29 -2.06
148.00 288.00 0.00 5.29 -2.06
149.00 288.00 0.00 5.29 -2.05
150.00 288.00 0.00 5.29 -2.05
151.00 288.00 0.00 5.30 -2.05
152.00 288.00 0.00 5.30 -2.05
153.00 288.00 0.00 5.30 -2.05
154.00 288.00 0.00 5.30 -2.04
155.00 288.00 0.00 5.30 -2.04
156.00 288.00 0.00 5.31 -2.04
157.00 288.00 0.00 5.31 -2.03
158.00 288.00 0.00 5.31 -2.03
159.00 288.00 0.00 5.31 -2.03
160.00 288.00 0.00 5.32 -2.03
161.00 288.00 0.00 5.32 -2.02
162.00 288.00 0.00 5.32 -2.02
163.00 288.00 0.00 5.32 -2.02
164.00 288.00 0.00 5.33 -2.01
165.00 288.00 0.00 5.33 -2.01
166.00 288.00 0.00 5.33 -2.01
167.00 288.00 0.00 5.34 -2.00
168.00 288.00 0.00 5.34 -2.00
169.00 288.00 0.00 5.34 -2.00
170.00 288.00 0.00 5.34 -1.99
171.00 288.00 0.00 5.35 -1.99
172.00 288.00 0.00 5.35 -1.99
173.00 288.00 0.00 5.35 -1.98
174.00 288.00 0.00 5.36 -1.98
175.00 288.00 0.00 5.36 -1.97
176.00 288.00 0.00 5.36 -1.97
177.00 288.00 0.00 5.37 -1.97
178.00 288.00 0.00 5.37 -1.96
179.00 288.00 0.00 5.37 -1.96
180.00 288.00 0.00 5.38 -1.95
181.00 288.00 0.00 5.38 -1.95
182.00 288.00 0.00 5.39 -1.94
183.00 288.00 0.00 5.39 -1.94
184.00 288.00 0.00 5.39 -1.94
185.00 288.00 0.00 5.40 -1.93
186.00 288.00 0.00 5.40 -1.93
187.00 288.00 0.00 5.41 -1.92
188.00 288.00 0.00 5.41 -1.92
189.00 288.00 0.00 5.41 -1.91
190.00 288.00 0.00 5.42 -1.91
191.00 288.00 0.00 5.42 -1.90
192.00 288.00 0.00 5.43 -1.90
193.00 288.00 0.00 5.43 -1.89
194.00 288.00 0.00 5.43 -1.89
195.00 288.00 0.00 5.44 -1.88
196.00 288.00 0.00 5.44 -1.88
197.00 288.00 0.00 5.45 -1.87
198.00 288.00 0.00 5.45 -1.86
199.00 288.00 0.00 5.46 -1.86
200.00 288.00 0.00 5.46 -1.85
201.00 288.00 0.00 5.47 -1.85
202.00 288.00 0.00 5.47 -1.84
203.00 288.00 0.00 5.48 -1.84
204.00 288.00 0.00 5.48 -1.83
205.00 288.00 0.00 5.49 -1.82
206.00 288.00 0.00 5.49 -1.82
207.00 288.00 0.00 5.50 -1.81
208.00 288.00 0.00 5.50 -1.81
209.00 288.00 0.00 5.51 -1.80
210.00 288.00 0.00 5.51 -1.79
211.00 288.00 0.00 5.52 -1.79
212.00 288.00 0.00 5.52 -1.78
213.00 288.00 0.00 5.53 -1.77
214.00 288.00 0.00 5.53 -1.77
215.00 288.00 0.00 5.54 -1.76
216.00 288.00 0.00 5.55 -1.75
217.00 288.00 0.00 5.55 -1.75
218.00 288.00 0.00 5.56 -1.74
219.00 288.00 0.00 5.56 -1.73
220.00 288.00 0.00 5.57 -1.73
221.00 288.00 0.00 5.57 -1.72
222.00 288.00 0.00 5.58 -1.71
223.00 288.00 0.00 5.59 -1.71
224.00 288.00 0.00 5.59 -1.70
225.00 288.00 0.00 5.60 -1.69
226.00 288.00 0.00 5.60 -1.68
227.00 288.00 0.00 5.61 -1.68
228.00 288.00 0.00 5.62 -1.67
229.00 288.00 0.00 5.62 -1.66
230.00 288.00 0.00 5.63 -1.65
231.00 288.00 0.00 5.64 -1.65
232.00 288.00 0.00 5.64 -1.64
233.00 288.00 0.00 5.65 -1.63
234.00 288.00 0.00 5.66 -1.62
235.00 288.00 0.00 5.66 -1.61
236.00 288.00 0.00 5.67 -1.61
237.00 288.00 0.00 5.68 -1.60
238.00 288.00 0.00 5.68 -1.59
239.00 288.00 0.00 5.69 -1.58
240.00 288.00 0.00 5.70 -1.57
241.00 288.00 0.00 5.70 -1.57
242.00 288.00 0.00 5.71 -1.56
243.00 288.00 0.00 5.72 -1.55
244.00 288.00 0.00 5.73 -1.54
245.00 288.00 0.00 5.73 -1.53
246.00 288.00 0.00 5.74 -1.52
247.00 288.00 0.00 5.75 -1.51
248.00 288.00 0.00 5.75 -1.51
249.00 288.00 0.00 5.76 -1.50
250.00 288.00 0.00 5.77 -1.49
251.00 288.00 0.00 5.78 -1.48
252.00 288.00 0.00 5.78 -1.47
253.00 288.00 0.00 5.79 -1.46
254.00 288.00 0.00 5.80 -1.45
255.00 288.00 0.00 5.81 -1.44
256.00 288.00 0.00 5.82 -1.43
257.00 288.00 0.00 5.82 -1.42
258.00 288.00 0.00 5.83 -1.41
259.00 288.00 0.00 5.84 -1.40
260.00 288.00 0.00 5.85 -1.39
261.00 288.00 0.00 5.86 -1.38
262.00 288.00 0.00 5.86 -1.37
263.00 288.00 0.00 5.87 -1.36
264.00 288.00 0.00 5.88 -1.35
265.00 288.00 0.00 5.89 -1.34
266.00 288.00 0.00 5.90 -1.33
267.00 288.00 0.00 5.91 -1.32
268.00 288.00 0.00 5.91 -1.31
269.00 288.00 0.00 5.92 -1.30
270.00 288.00 0.00 5.93 -1.29
271.00 288.00 0.00 5.94 -1.28
272.00 288.00 0.00 5.95 -1.27
273.00 288.00 0.00 5.96 -1.26
274.00 288.00 0.00 5.97 -1.25
275.00 288.00 0.00 5.98 -1.24
276.00 288.00 0.00 5.98 -1.23
277.00 288.00 0.00 5.99 -1.22
278.00 288.00 0.00 6.00 -1.21
279.00 288.00 0.00 6.01 -1.20
280.00 288.00 0.00 6.02 -1.19
281.00 288.00 0.00 6.03 -1.17
282.00 288.00 0.00 6.04 -1.16
283.00 288.00 0.00 6.05 -1.15
284.00 288.00 0.00 6.06 -1.14
285.00 288.00 0.00 6.07 -1.13
286.00 288.00 0.00 6.08 -1.12
287.00 288.00 0.00 6.09 -1.11
288.00 288.00 0.00 6.10 -1.09
289.00 288.00 0.00 6.11 -1.08
290.00 288.00 0.00 6.12 -1.07
291.00 288.00 0.00 6.13 -1.06
292.00 288.00 0.00 6.14 -1.05
293.00 288.00 0.00 6.15 -1.03
294.00 288.00 0.00 6.16 -1.02
295.00 288.00 0.00 6.17 -1.01
296.00 288.00 0.00 6.18 -1.00
297.00 288.00 0.00 6.19 -0.99
298.00 288.00 0.00 6.20 -0.97
299.00 288.00 0.00 6.21 -0.96
300.00 288.00 0.00 6.21 -0.95
301.00 288.00 0.00 6.23 -0.94
302.00 288.00 0.00 6.24 -0.93
303.00 288.00 0.00 6.25 -0.91
304.00 288.00 0.00 6.26 -0.90
305.00 288.00 0.00 6.27 -0.89
306.00 288.00 0.00 6.28 -0.88
307.00 288.00 0.00 6.29 -0.87
308.00 288.00 0.00 6.30 -0.85
309.00 288.00 0.00 6.31 -0.84
310.00 288.00 0.00 6.32 -0.83
311.00 288.00 0.00 6.33 -0.82
312.00 288.00 0.00 6.34 -0.80
313.00 288.00 0.00 6.35 -0.79
314.00 288.00 0.00 6.36 -0.78
315.00 288.00 0.00 6.37 -0.77
316.00 288.00 0.00 6.38 -0.76
317.00 288.00 0.00 6.39 -0.74
318.00 288.00 0.00 6.40 -0.73
319.00 288.00 0.00 6.41 -0.72
320.00 288.00 0.00 6.42 -0.71
321.00 288.00 0.00 6.43 -0.70
322.00 288.00 0.00 6.44 -0.68
323.00 288.00 0.00 6.45 -0.67
324.00 288.00 0.00 6.46 -0.66
325.00 288.00 0.00 6.47 -0.65
326.00 288.00 0.00 6.48 -0.63
327.00 288.00 0.00 6.49 -0.62
328.00 288.00 0.00 6.50 -0.61
329.00 288.00 0.00 6.51 -0.60
330.00 288.00 0.00 6.52 -0.59
331.00 288.00 0.00 6.53 -0.57
332.00 288.00 0.00 6.54 -0.56
333.00 288.00 0.00 6.55 -0.55
334.00 288.00 0.00 6.56 -0.54
335.00 288.00 0.00 6.57 -0.52
336.00 288.00 0.00 6.58 -0.51
337.00 288.00 0.00 6.59 -0.50
338.00 288.00 0.00 6.60 -0.49
339.00 288.00 0.00 6.61 -0.48
340.00 288.00 0.00 6.62 -0.46
341.00 288.00 0.00 6.63 -0.45
342.00 288.00 0.00 6.64 -0.44
343.00 288.00 0.00 6.65 -0.43
344.00 288.00 0.00 6.66 -0.42
345.00 288.00 0.00 6.67 -0.40
346.00 288.00 0.00 6.68 -0.39
347.00 288.00 0.00 6.69 -0.38
348.00 288.00 0.00 6.70 -0.37
349.00 288.00 0.00 6.71 -0.35
350.00 288.00 0.00 6.72 -0.34
351.00 288.00 0.00 6.73 -0.33
352.00 288.00 0.00 6.74 -0.32
353.00 288.00 0.00 6.75 -0.31
354.00 288.00 0.00 6.76 -0.29
355.00 288.00 0.00 6.77 -0.28
356.00 288.00 0.00 6.78 -0.27
357.00 288.00 0.00 6.79 -0.26
358.00 288.00 0.00 6.80 -0.24
359.00 288.00 0.00 6.81 -0.23
360.00 288.00 0.00 6.82 -0.22
361.00 288.00 0.00 6.83 -0.21
362.00 288.00 0.00 6.84 -0.20
363.00 288.00 0.00 6.85 -0.18
364.00 288.00 0.00 6.86 -0.17
365.00 288.00 0.00 6.87 -0.16
366.00 288.00 0.00 6.88 -0.15
367.00 288.00 0.00 6.89 -0.13
368.00 288.00 0.00 6.90 -0.12
369.00 288.00 0.00 6.91 -0.11
370.00 288.00 0.00 6.92 -0.10
371.00 288.00 0.00 6.93 -0.09
372.00 288.00 0.00 6.94 -0.07
373.00 288.00 0.00 6.95 -0.06
374.00 288.00 0.00 6.96 -0.05
375.00 288.00 0.00 6.97 -0.04
376.00 288.00 0.00 6.98 -0.02
377.00 288.00 0.00 6.99 -0.01
378.00 288.00 0.00 7.00 0.00
379.00 288.00 0.00 7.01 0.01
380.00 288.00 0.00 7.02 0.02
381.00 288.00 0.00 7.03 0.04
382.00 288.00 0.00 7.04 0.05
383.00 288.00 0.00 7.05 0.06
384.00 288.00 0.00 7.06 0.07
385.00 288.00 0.00 7.07 0.09
386.00 288.00 0.00 7.08 0.10
387.00 288.00 0.00 7.09 0.11
388.00 288.00 0.00 7.10 0.12
389.00 288.00 0.00 7.11 0.13
390.00 288.00 0.00 7.12 0.15
391.00 288.00 0.00 7.13 0.16
392.00 288.00 0.00 7.14 0.17
393.00 288.00 0.00 7.15 0.18
394.00 288.00 0.00 7.16 0.20
395.00 288.00 0.00 7.17 0.21
396.00 288.00 0.00 7.18 0.22
397.00 288.00 0.00 7.19 0.23
398.00 288.00 0.00 7.19 0.24
399.00 288.00 0.00 7.21 0.26
400.00 288.00 0.00 7.22 0.27
401.00 288.00 0.00 7.23 0.28
402.00 288.00 0.00 7.24 0.29
403.00 288.00 0.00 7.25 0.31
404.00 288.00 0.00 7.26 0.32
405.00 288.00 0.00 7.27 0.33
406.00 288.00 0.00 7.28 0.34
407.00 288.00 0.00 7.29 0.35
408.00 288.00 0.00 7.30 0.37
409.00 288.00 0.00 7.31 0.38
410.00 288.00 0.00 7.32 0.39
411.00 288.00 0.00 7.33 0.40
412.00 288.00 0.00 7.34 0.42
413.00 288.00 0.00 7.35 0.43
414.00 288.00 0.00 7.36 0.44
415.00 288.00 0.00 7.37 0.45
416.00 288.00 0.00 7.37 0.46
417.00 288.00 0.00 7.39 0.48
418.00 288.00 0.00 7.40 0.49
419.00 288.00 0.00 7.41 0.50
420.00 288.00 0.00 7.42 0.51
421.00 288.00 0.00 7.43 0.52
422.00 288.00 0.00 7.44 0.54
423.00 288.00 0.00 7.45 0.55
424.00 288.00 0.00 7.46 0.56
425.00 288.00 0.00 7.47 0.57
426.00 288.00 0.00 7.48 0.59
427.00 288.00 0.00 7.49 0.60
428.00 288.00 0.00 7.50 0.61
429.00 288.00 0.00 7.51 0.62
430.00 288.00 0.00 7.52 0.63
431.00 288.00 0.00 7.53 0.65
432.00 288.00 0.00 7.54 0.66
433.00 288.00 0.00 7.55 0.67
434.00 288.00 0.00 7.56 0.68
435.00 288.00 0.00 7.57 0.70
436.00 288.00 0.00 7.58 0.71
437.00 288.00 0.00 7.59 0.72
438.00 288.00 0.00 7.60 0.73
439.00 288.00 0.00 7.61 0.74
440.00 288.00 0.00 7.61 0.76
441.00 288.00 0.00 7.62 0.77
442.00 288.00 0.00 7.64 0.78
443.00 288.00 0.00 7.65 0.79
444.00 288.00 0.00 7.66 0.80
445.00 288.00 0.00 7.67 0.82
446.00 288.00 0.00 7.68 0.83
447.00 288.00 0.00 7.69 0.84
448.00 288.00 0.00 7.70 0.85
449.00 288.00 0.00 7.71 0.87
450.00 288.00 0.00 7.72 0.88
451.00 288.00 0.00 7.73 0.89
452.00 288.00 0.00 7.74 0.90
453.00 288.00 0.00 7.75 0.91
454.00 288.00 0.00 7.76 0.93
455.00 288.00 0.00 7.77 0.94
456.00 288.00 0.00 7.78 0.95
457.00 288.00 0.00 7.79 0.96
458.00 288.00 0.00 7.80 0.97
459.00 288.00 0.00 7.80 0.99
460.00 288.00 0.00 7.82 1.00
461.00 288.00 0.00 7.83 1.01
462.00 288.00 0.00 7.84 1.02
463.00 288.00 0.00 7.85 1.03
464.00 288.00 0.00 7.85 1.05
465.00 288.00 0.00 7.86 1.06
466.00 288.00 0.00 7.87 1.07
467.00 288.00 0.00 7.88 1.08
468.00 288.00 0.00 7.89 1.09
469.00 288.00 0.00 7.90 1.11
470.00 288.00 0.00 7.91 1.12
471.00 288.00 0.00 7.92 1.13
472.00 288.00 0.00 7.93 1.14
473.00 288.00 0.00 7.94 1.15
474.00 288.00 0.00 7.95 1.16
475.00 288.00 0.00 7.96 1.17
476.00 288.00 0.00 7.97 1.19
477.00 288.00 0.00 7.98 1.20
478.00 288.00 0.00 7.99 1.21
479.00 288.00 0.00 8.00 1.22
480.00 288.00 0.00 8.01 1.23
481.00 288.00 0.00 8.02 1.24
482.00 288.00 0.00 8.02 1.25
483.00 288.00 0.00 8.03 1.26
484.00 288.00 0.00 8.04 1.27
485.00 288.00 0.00 8.05 1.28
486.00 288.00 0.00 8.06 1.29
487.00 288.00 0.00 8.07 1.30
488.00 288.00 0.00 8.08 1.31
489.00 288.00 0.00 8.09 1.32
490.00 288.00 0.00 8.09 1.33
491.00 288.00 0.00 8.10 1.34
492.00 288.00 0.00 8.11 1.35
493.00 288.00 0.00 8.12 1.36
494.00 288.00 0.00 8.13 1.37
495.00 288.00 0.00 8.14 1.38
496.00 288.00 0.00 8.14 1.39
497.00 288.00 0.00 8.15 1.40
498.00 288.00 0.00 8.16 1.41
499.00 288.00 0.00 8.17 1.42
500.00 288.00 0.00 8.18 1.43
501.00 288.00 0.00 8.18 1.44
502.00 288.00 0.00 8.19 1.45
503.00 288.00 0.00 8.20 1.46
504.00 288.00 0.00 8.21 1.47
505.00 288.00 0.00 8.22 1.48
506.00 288.00 0.00 8.22 1.49
507.00 288.00 0.00 8.23 1.50
508.00 288.00 0.00 8.24 1.51
509.00 288.00 0.00 8.25 1.51
510.00 288.00 0.00 8.25 1.52
511.00 288.00 0.00 8.26 1.53
512.00 288.00 0.00 8.27 1.54
513.00 288.00 0.00 8.27 1.55
514.00 288.00 0.00 8.28 1.56
515.00 288.00 0.00 8.29 1.57
516.00 288.00 0.00 8.30 1.57
517.00 288.00 0.00 8.30 1.58
518.00 288.00 0.00 8.31 1.59
519.00 288.00 0.00 8.32 1.60
520.00 288.00 0.00 8.32 1.61
521.00 288.00 0.00 8.33 1.61
522.00 288.00 0.00 8.34 1.62
523.00 288.00 0.00 8.34 1.63
524.00 288.00 0.00 8.35 1.64
525.00 288.00 0.00 8.36 1.65
526.00 288.00 0.00 8.36 1.65
527.00 288.00 0.00 8.37 1.66
528.00 288.00 0.00 8.38 1.67
529.00 288.00 0.00 8.38 1.68
530.00 288.00 0.00 8.39 1.68
531.00 288.00 0.00 8.40 1.69
532.00 288.00 0.00 8.40 1.70
533.00 288.00 0.00 8.41 1.71
534.00 288.00 0.00 8.41 1.71
535.00 288.00 0.00 8.42 1.72
536.00 288.00 0.00 8.43 1.73
537.00 288.00 0.00 8.43 1.73
538.00 288.00 0.00 8.44 1.74
539.00 288.00 0.00 8.44 1.75
540.00 288.00 0.00 8.45 1.75
541.00 288.00 0.00 8.45 1.76
542.00 288.00 0.00 8.46 1.77
543.00 288.00 0.00 8.47 1.77
544.00 288.00 0.00 8.47 1.78
545.00 288.00 0.00 8.48 1.79
546.00 288.00 0.00 8.48 1.79
547.00 288.00 0.00 8.49 1.80
548.00 288.00 0.00 8.49 1.81
549.00 288.00 0.00 8.50 1.81
550.00 288.00 0.00 8.50 1.82
551.00 288.00 0.00 8.51 1.82
552.00 288.00 0.00 8.51 1.83
553.00 288.00 0.00 8.52 1.84
554.00 288.00 0.00 8.52 1.84
555.00 288.00 0.00 8.53 1.85
556.00 288.00 0.00 8.53 1.85
557.00 288.00 0.00 8.54 1.86
558.00 288.00 0.00 8.54 1.86
559.00 288.00 0.00 8.55 1.87
560.00 288.00 0.00 8.55 1.88
561.00 288.00 0.00 8.56 1.88
562.00 288.00 0.00 8.56 1.89
563.00 288.00 0.00 8.57 1.89
564.00 288.00 0.00 8.57 1.90
565.00 288.00 0.00 8.57 1.90
566.00 288.00 0.00 8.58 1.91
567.00 288.00 0.00 8.58 1.91
568.00 288.00 0.00 8.59 1.92
569.00 288.00 0.00 8.59 1.92
570.00 288.00 0.00 8.59 1.93
571.00 288.00 0.00 8.60 1.93
572.00 288.00 0.00 8.60 1.94
573.00 288.00 0.00 8.61 1.94
574.00 288.00 0.00 8.61 1.94
575.00 288.00 0.00 8.61 1.95
576.00 288.00 0.00 8.62 1.95
577.00 288.00 0.00 8.62 1.96
578.00 288.00 0.00 8.63 1.96
579.00 288.00 0.00 8.63 1.97
580.00 288.00 0.00 8.63 1.97
581.00 288.00 0.00 8.64 1.97
582.00 288.00 0.00 8.64 1.98
583.00 288.00 0.00 8.64 1.98
584.00 288.00 0.00 8.65 1.99
585.00 288.00 0.00 8.65 1.99
586.00 288.00 0.00 8.65 1.99
587.00 288.00 0.00 8.66 2.00
588.00 288.00 0.00 8.66 2.00
589.00 288.00 0.00 8.66 2.00
590.00 288.00 0.00 8.66 2.01
591.00 288.00 0.00 8.67 2.01
592.00 288.00 0.00 8.67 2.01
593.00 288.00 0.00 8.67 2.02
594.00 288.00 0.00 8.68 2.02
595.00 288.00 0.00 8.68 2.02
596.00 288.00 0.00 8.68 2.03
597.00 288.00 0.00 8.68 2.03
598.00 288.00 0.00 8.69 2.03
599.00 288.00 0.00 8.69 2.03
600.00 288.00 0.00 8.69 2.04
601.00 288.00 0.00 8.69 2.04
602.00 288.00 0.00 8.70 2.04
603.00 288.00 0.00 8.70 2.05
604.00 288.00 0.00 8.70 2.05
605.00 288.00 0.00 8.70 2.05
606.00 288.00 0.00 8.70 2.05
607.00 288.00 0.00 8.71 2.05
608.00 288.00 0.00 8.71 2.06
609.00 288.00 0.00 8.71 2.06
610.00 288.00 0.00 8.71 2.06
611.00 288.00 0.00 8.71 2.06
612.00 288.00 0.00 8.72 2.07
613.00 288.00 0.00 8.72 2.07
614.00 288.00 0.00 8.72 2.07
615.00 288.00 0.00 8.72 2.07
616.00 288.00 0.00 8.72 2.07
617.00 288.00 0.00 8.72 2.07
618.00 288.00 0.00 8.72 2.08
619.00 288.00 0.00 8.73 2.08
620.00 288.00 0.00 8.73 2.08
621.00 288.00 0.00 8.73 2.08
622.00 288.00 0.00 8.73 2.08
623.00 288.00 0.00 8.73 2.08
624.00 288.00 0.00 8.73 2.08
625.00 288.00 0.00 8.73 2.09
626.00 288.00 0.00 8.73 2.09
627.00 288.00 0.00 8.73 2.09
628.00 288.00 0.00 8.74 2.09
629.00 288.00 0.00 8.74 2.09
630.00 288.00 0.00 8.74 2.09
631.00 288.00 0.00 8.74 2.09
632.00 288.00 0.00 8.74 2.09
633.00 288.00 0.00 8.74 2.09
634.00 288.00 0.00 8.74 2.09
635.00 288.00 0.00 8.74 2.09
636.00 288.00 0.00 8.74 2.09
637.00 288.00 0.00 8.74 2.09
638.00 288.00 0.00 8.74 2.09
639.00 288.00 0.00 8.74 2.09
640.00 288.00 0.00 8.74 2.09
641.00 288.00 0.00 8.74 2.09
642.00 288.00 0.00 8.74 2.09
643.00 288.00 0.00 8.74 2.09
644.00 288.00 0.00 8.74 2.09
645.00 288.00 0.00 8.74 2.09
646.00 288.00 0.00 8.74 2.09
647.00 288.00 0.00 8.74 2.09
648.00 288.00 0.00 8.74 2.09
649.00 288.00 0.00 8.74 2.09
650.00 288.00 0.00 8.74 2.09
651.00 288.00 0.00 8.74 2.09
652.00 288.00 0.00 8.74 2.09
653.00 288.00 0.00 8.74 2.09
654.00 288.00 0.00 8.74 2.09
655.00 288.00 0.00 8.74 2.09
656.00 288.00 0.00 8.74 2.09
657.00 288.00 0.00 8.74 2.09
658.00 288.00 0.00 8.74 2.09
659.00 288.00 0.00 8.74 2.09
660.00 288.00 0.00 8.74 2.09
661.00 288.00 0.00 8.74 2.09
662.00 288.00 0.00 8.74 2.09
663.00 288.00 0.00 8.74 2.09
664.00 288.00 0.00 8.74 2.09
665.00 288.00 0.00 8.74 2.09
666.00 288.00 0.00 8.74 2.09
667.00 288.00 0.00 8.74 2.09
668.00 288.00 0.00 8.74 2.09
669.00 288.00 0.00 8.74 2.09
670.00 288.00 0.00 8.74 2.09
671.00 288.00 0.00 8.74 2.09
672.00 288.00 0.00 8.74 2.09
673.00 288.00 0.00 8.74 2.09
674.00 288.00 0.00 8.74 2.09
675.00 288.00 0.00 8.74 2.09
676.00 288.00 0.00 8.74 2.09
677.00 288.00 0.00 8.74 2.09
678.00 288.00 0.00 8.74 2.09
679.00 288.00 0.00 8.74 2.09
680.00 288.00 0.00 8.74 2.09
681.00 288.00 0.00 8.74 2.09
682.00 288.00 0.00 8.74 2.09
683.00 288.00 0.00 8.74 2.09
684.00 288.00 0.00 8.74 2.09
685.00 288.00 0.00 8.74 2.09
686.00 288.00 0.00 8.74 2.09
687.00 288.00 0.00 8.74 2.09
688.00 288.00 0.00 8.74 2.09
689.00 288.00 0.00 8.74 2.09
690.00 288.00 0.00 8.74 2.09
691.00 288.00 0.00 8.74 2.09
692.00 288.00 0.00 8.74 2.09
693.00 288.00 0.00 8.74 2.09
694.00 288.00 0.00 8.74 2.09
695.00 288.00 0.00 8.74 2.09
696.00 288.00 0.00 8.74 2.09
697.00 288.00 0.00 8.74 2.09
698.00 288.00 0.00 8.74 2.09
699.00 288.00 0.00 8.74 2.09
700.00 288.00 0.00 8.74 2.09
701.00 288.00 0.00 8.74 2.09
702.00 288.00 0.00 8.74 2.09
703.00 288.00 0.00 8.74 2.09
704.00 288.00 0.00 8.74 2.09
705.00 288.00 0.00 8.74 2.09
706.00 288.00 0.00 8.74 2.09
707.00 288.00 0.00 8.74 2.09
708.00 288.00 0.00 8.74 2.09
709.00 288.00 0.00 8.74 2.09
710.00 288.00 0.00 8.74 2.09
711.00 288.00 0.00 8.74 2.09
712.00 288.00 0.00 8.74 2.09
713.00 288.00 0.00 8.74 2.09
714.00 288.00 0.00 8.74 2.09
715.00 288.00 0.00 8.74 2.09
716.00 288.00 0.00 8.74 2.09
717.00 288.00 0.00 8.74 2.09
718.00 288.00 0.00 8.74 2.09
719.00 288.00 0.00 8.74 2.09
720.00 288.00 0.00 8.74 2.09
721.00 288.00 0.00 8.74 2.09
722.00 288.00 0.00 8.74 2.09
723.00 288.00 0.00 8.74 2.09
724.00 288.00 0.00 8.74 2.09
725.00 288.00 0.00 8.74 2.09
726.00 288.00 0.00 8.74 2.09
727.00 288.00 0.00 8.74 2.09
728.00 288.00 0.00 8.74 2.09
729.00 288.00 0.00 8.74 2.09
730.00 288.00 0.00 8.74 2.09
731.00 288.00 0.00 8.74 2.09
732.00 288.00 0.00 8.74 2.09
733.00 288.00 0.00 8.74 2.09
734.00 288.00 0.00 8.74 2.09
735.00 288.00 0.00 8.74 2.09
736.00 288.00 0.00 8.74 2.09
737.00 288.00 0.00 8.74 2.09
738.00 288.00 0.00 8.74 2.09
739.00 288.00 0.00 8.74 2.09
740.00 288.00 0.00 8.74 2.09
741.00 288.00 0.00 8.74 2.09
742.00 288.00 0.00 8.74 2.09
743.00 288.00 0.00 8.74 2.09
744.00 288.00 0.00 8.74 2.09
745.00 288.00 0.00 8.74 2.09
746.00 288.00 0.00 8.74 2.09
747.00 288.00 0.00 8.74 2.09
748.00 288.00 0.00 8.74 2.09
749.00 288.00 0.00 8.74 2.09
750.00 288.00 0.00 8.74 2.09
751.00 288.00 0.00 8.74 2.09
752.00 288.00 0.00 8.74 2.09
753.00 288.00 0.00 8.74 2.09
754.00 288.00 0.00 8.74 2.09
755.00 288.00 0.00 8.74 2.09
756.00 288.00 0.00 8.74 2.09
757.00 288.00 0.00 8.74 2.09
758.00 288.00 0.00 8.74 2.09
759.00 288.00 0.00 8.74 2.09
760.00 288.00 0.00 8.74 2.09
761.00 288.00 0.00 8.74 2.09
762.00 288.00 0.00 8.74 2.09
763.00 288.00 0.00 8.74 2.09
764.00 288.00 0.00 8.74 2.09
765.00 288.00 0.00 8.74 2.09
766.00 288.00 0.00 8.74 2.09
767.00 288.00 0.00 8.74 2.09
768.00 288.00 0.00 8.74 2.09
769.00 288.00 0.00 8.74 2.09
770.00 288.00 0.00 8.74 2.09
771.00 288.00 0.00 8.74 2.09
772.00 288.00 0.00 8.74 2.09
773.00 288.00 0.00 8.74 2.09
774.00 288.00 0.00 8.74 2.09
775.00 288.00 0.00 8.74 2.09
776.00 288.00 0.00 8.74 2.09
777.00 288.00 0.00 8.74 2.09
778.00 288.00 0.00 8.74 2.09
779.00 288.00 0.00 8.74 2.09
780.00 288.00 0.00 8.74 2.09
781.00 288.00 0.00 8.74 2.09
782.00 288.00 0.00 8.74 2.09
783.00 288.00 0.00 8.74 2.09
784.00 288.00 0.00 8.74 2.09
785.00 288.00 0.00 8.74 2.09
786.00 288.00 0.00 8.74 2.09
787.00 288.00 0.00 8.74 2.09
788.00 288.00 0.00 8.74 2.09
789.00 288.00 0.00 8.74 2.09
790.00 288.00 0.00 8.74 2.09
791.00 288.00 0.00 8.74 2.09
792.00 288.00 0.00 8.74 2.09
793.00 288.00 0.00 8.74 2.09
794.00 288.00 0.00 8.74 2.09
795.00 288.00 0.00 8.74 2.09
796.00 288.00 0.00 8.74 2.09
797.00 288.00 0.00 8.74 2.09
798.00 288.00 0.00 8.74 2.09
799.00 288.00 0.00 8.74 2.09
800.00 288.00 0.00 8.74 2.09
801.00 288.00 0.00 8.74 2.09
802.00 288.00 0.00 8.74 2.09
803.00 288.00 0.00 8.74 2.09
804.00 288.00 0.00 8.74 2.09
805.00 288.00 0.00 8.74 2.09
806.00 288.00 0.00 8.74 2.09
807.00 288.00 0.00 8.74 2.09
808.00 288.00 0.00 8.74 2.09
809.00 288.00 0.00 8.74 2.09
810.00 288.00 0.00 8.74 2.09
811.00 288.00 0.00 8.74 2.09
812.00 288.00 0.00 8.74 2.09
813.00 288.00 0.00 8.74 2.09
814.00 288.00 0.00 8.74 2.09
815.00 288.00 0.00 8.74 2.09
816.00 288.00 0.00 8.74 2.09
817.00 288.00 0.00 8.74 2.09
818.00 288.00 0.00 8.74 2.09
819.00 288.00 0.00 8.74 2.09
820.00 288.00 0.00 8.74 2.09
821.00 288.00 0.00 8.74 2.09
822.00 288.00 0.00 8.74 2.09
823.00 288.00 0.00 8.74 2.09
824.00 288.00 0.00 8.74 2.09
825.00 288.00 0.00 8.74 2.09
826.00 288.00 0.00 8.74 2.09
827.00 288.00 0.00 8.74 2.09
828.00 288.00 0.00 8.74 2.09
829.00 288.00 0.00 8.74 2.09
830.00 288.00 0.00 8.74 2.09
831.00 288.00 0.00 8.74 2.09
