1000.00 288.00 00.00
0.00 288.00 0.00 1.71 5.59
1.00 288.00 0.00 1.71 5.59
2.00 288.00 0.00 1.71 5.59
3.00 288.00 0.00 1.71 5.59
4.00 288.00 0.00 1.71 5.59
5.00 288.00 0.00 1.71 5.59
6.00 288.00 0.00 1.71 5.59
7.00 288.00 0.00 1.71 5.59
8.00 288.00 0.00 1.71 5.59
9.00 288.00 0.00 1.71 5.59
10.00 288.00 0.00 1.71 5.59
11.00 288.00 0.00 1.71 5.59
12.00 288.00 0.00 1.71 5.59
13.00 288.00 0.00 1.71 5.59
14.00 288.00 0.00 1.71 5.59
15.00 288.00 0.00 1.71 5.59
16.00 288.00 0.00 1.71 5.59
17.00 288.00 0.00 1.71 5.59
18.00 288.00 0.00 1.71 5.59
19.00 288.00 0.00 1.71 5.59
20.00 288.00 0.00 1.71 5.59
21.00 288.00 0.00 1.71 5.59
22.00 288.00 0.00 1.71 5.59
23.00 288.00 0.00 1.71 5.59
24.00 288.00 0.00 1.71 5.59
25.00 288.00 0.00 1.71 5.59
26.00 288.00 0.00 1.71 5.59
27.00 288.00 0.00 1.71 5.59
28.00 288.00 0.00 1.71 5.59
29.00 288.00 0.00 1.71 5.59
30.00 288.00 0.00 1.71 5.59
31.00 288.00 0.00 1.71 5.59
32.00 288.00 0.00 1.71 5.59
33.00 288.00 0.00 1.71 5.59
34.00 288.00 0.00 1.71 5.59
35.00 288.00 0.00 1.71 5.59
36.00 288.00 0.00 1.71 5.59
37.00 288.00 0.00 1.71 5.59
38.00 288.00 0.00 1.71 5.59
39.00 288.00 0.00 1.71 5.59
40.00 288.00 0.00 1.71 5.59
41.00 288.00 0.00 1.71 5.59
42.00 288.00 0.00 1.71 5.59
43.00 288.00 0.00 1.71 5.59
44.00 288.00 0.00 1.71 5.59
45.00 288.00 0.00 1.71 5.59
46.00 288.00 0.00 1.71 5.59
47.00 288.00 0.00 1.71 5.59
48.00 288.00 0.00 1.71 5.59
49.00 288.00 0.00 1.71 5.59
50.00 288.00 0.00 1.71 5.59
51.00 288.00 0.00 1.71 5.59
52.00 288.00 0.00 1.71 5.59
53.00 288.00 0.00 1.71 5.59
54.00 288.00 0.00 1.71 5.59
55.00 288.00 0.00 1.71 5.59
56.00 288.00 0.00 1.71 5.59
57.00 288.00 0.00 1.71 5.59
58.00 288.00 0.00 1.71 5.59
59.00 288.00 0.00 1.71 5.59
60.00 288.00 0.00 1.71 5.59
61.00 288.00 0.00 1.71 5.59
62.00 288.00 0.00 1.71 5.59
63.00 288.00 0.00 1.71 5.59
64.00 288.00 0.00 1.71 5.59
65.00 288.00 0.00 1.71 5.59
66.00 288.00 0.00 1.71 5.59
67.00 288.00 0.00 1.71 5.59
68.00 288.00 0.00 1.71 5.59
69.00 288.00 0.00 1.71 5.59
70.00 288.00 0.00 1.71 5.59
71.00 288.00 0.00 1.71 5.59
72.00 288.00 0.00 1.71 5.59
73.00 288.00 0.00 1.71 5.59
74.00 288.00 0.00 1.71 5.59
75.00 288.00 0.00 1.71 5.59
76.00 288.00 0.00 1.71 5.59
77.00 288.00 0.00 1.71 5.59
78.00 288.00 0.00 1.71 5.59
79.00 288.00 0.00 1.71 5.59
80.00 288.00 0.00 1.71 5.59
81.00 288.00 0.00 1.71 5.58
82.00 288.00 0.00 1.71 5.58
83.00 288.00 0.00 1.71 5.58
84.00 288.00 0.00 1.71 5.58
85.00 288.00 0.00 1.71 5.58
86.00 288.00 0.00 1.71 5.58
87.00 288.00 0.00 1.71 5.58
88.00 288.00 0.00 1.72 5.58
89.00 288.00 0.00 1.72 5.58
90.00 288.00 0.00 1.72 5.58
91.00 288.00 0.00 1.72 5.57
92.00 288.00 0.00 1.72 5.57
93.00 288.00 0.00 1.72 5.57
94.00 288.00 0.00 1.73 5.57
95.00 288.00 0.00 1.73 5.57
96.00 288.00 0.00 1.73 5.57
97.00 288.00 0.00 1.73 5.56
98.00 288.00 0.00 1.74 5.56
99.00 288.00 0.00 1.74 5.56
100.00 288.00 0.00 1.74 5.56
101.00 288.00 0.00 1.75 5.55
102.00 288.00 0.00 1.75 5.55
103.00 288.00 0.00 1.75 5.55
104.00 288.00 0.00 1.76 5.55
105.00 288.00 0.00 1.76 5.54
106.00 288.00 0.00 1.77 5.54
107.00 288.00 0.00 1.77 5.54
108.00 288.00 0.00 1.77 5.53
109.00 288.00 0.00 1.78 5.53
110.00 288.00 0.00 1.78 5.53
111.00 288.00 0.00 1.79 5.52
112.00 288.00 0.00 1.79 5.52
113.00 288.00 0.00 1.80 5.52
114.00 288.00 0.00 1.80 5.51
115.00 288.00 0.00 1.81 5.51
116.00 288.00 0.00 1.81 5.50
117.00 288.00 0.00 1.82 5.50
118.00 288.00 0.00 1.82 5.50
119.00 288.00 0.00 1.83 5.49
120.00 288.00 0.00 1.84 5.49
121.00 288.00 0.00 1.84 5.48
122.00 288.00 0.00 1.85 5.48
123.00 288.00 0.00 1.85 5.47
124.00 288.00 0.00 1.86 5.47
125.00 288.00 0.00 1.87 5.46
126.00 288.00 0.00 1.87 5.46
127.00 288.00 0.00 1.88 5.45
128.00 288.00 0.00 1.89 5.45
129.00 288.00 0.00 1.90 5.44
130.00 288.00 0.00 1.90 5.43
131.00 288.00 0.00 1.91 5.43
132.00 288.00 0.00 1.92 5.42
133.00 288.00 0.00 1.93 5.42
134.00 288.00 0.00 1.93 5.41
135.00 288.00 0.00 1.94 5.40
136.00 288.00 0.00 1.95 5.40
137.00 288.00 0.00 1.96 5.39
138.00 288.00 0.00 1.97 5.39
139.00 288.00 0.00 1.97 5.38
140.00 288.00 0.00 1.98 5.37
141.00 288.00 0.00 1.99 5.36
142.00 288.00 0.00 2.00 5.36
143.00 288.00 0.00 2.01 5.35
144.00 288.00 0.00 2.02 5.34
145.00 288.00 0.00 2.03 5.34
146.00 288.00 0.00 2.04 5.33
147.00 288.00 0.00 2.05 5.32
148.00 288.00 0.00 2.06 5.31
149.00 288.00 0.00 2.07 5.30
150.00 288.00 0.00 2.08 5.30
151.00 288.00 0.00 2.09 5.29
152.00 288.00 0.00 2.10 5.28
153.00 288.00 0.00 2.11 5.27
154.00 288.00 0.00 2.12 5.26
155.00 288.00 0.00 2.13 5.25
156.00 288.00 0.00 2.14 5.24
157.00 288.00 0.00 2.15 5.24
158.00 288.00 0.00 2.16 5.23
159.00 288.00 0.00 2.18 5.22
160.00 288.00 0.00 2.19 5.21
161.00 288.00 0.00 2.20 5.20
162.00 288.00 0.00 2.21 5.19
163.00 288.00 0.00 2.22 5.18
164.00 288.00 0.00 2.23 5.17
165.00 288.00 0.00 2.25 5.16
166.00 288.00 0.00 2.26 5.15
167.00 288.00 0.00 2.27 5.14
168.00 288.00 0.00 2.28 5.13
169.00 288.00 0.00 2.30 5.12
170.00 288.00 0.00 2.31 5.11
171.00 288.00 0.00 2.32 5.10
172.00 288.00 0.00 2.34 5.08
173.00 288.00 0.00 2.35 5.07
174.00 288.00 0.00 2.36 5.06
175.00 288.00 0.00 2.38 5.05
176.00 288.00 0.00 2.39 5.04
177.00 288.00 0.00 2.40 5.03
178.00 288.00 0.00 2.42 5.01
179.00 288.00 0.00 2.43 5.00
180.00 288.00 0.00 2.45 4.99
181.00 288.00 0.00 2.46 4.98
182.00 288.00 0.00 2.48 4.96
183.00 288.00 0.00 2.49 4.95
184.00 288.00 0.00 2.50 4.94
185.00 288.00 0.00 2.52 4.93
186.00 288.00 0.00 2.53 4.91
187.00 288.00 0.00 2.55 4.90
188.00 288.00 0.00 2.57 4.89
189.00 288.00 0.00 2.58 4.87
190.00 288.00 0.00 2.60 4.86
191.00 288.00 0.00 2.61 4.84
192.00 288.00 0.00 2.63 4.83
193.00 288.00 0.00 2.64 4.82
194.00 288.00 0.00 2.66 4.80
195.00 288.00 0.00 2.68 4.79
196.00 288.00 0.00 2.69 4.77
197.00 288.00 0.00 2.71 4.76
198.00 288.00 0.00 2.73 4.74
199.00 288.00 0.00 2.74 4.73
200.00 288.00 0.00 2.76 4.71
201.00 288.00 0.00 2.78 4.70
202.00 288.00 0.00 2.80 4.68
203.00 288.00 0.00 2.81 4.66
204.00 288.00 0.00 2.83 4.65
205.00 288.00 0.00 2.85 4.63
206.00 288.00 0.00 2.87 4.62
207.00 288.00 0.00 2.88 4.60
208.00 288.00 0.00 2.90 4.58
209.00 288.00 0.00 2.92 4.56
210.00 288.00 0.00 2.94 4.55
211.00 288.00 0.00 2.96 4.53
212.00 288.00 0.00 2.98 4.51
213.00 288.00 0.00 3.00 4.50
214.00 288.00 0.00 3.01 4.48
215.00 288.00 0.00 3.03 4.46
216.00 288.00 0.00 3.05 4.44
217.00 288.00 0.00 3.07 4.42
218.00 288.00 0.00 3.09 4.40
219.00 288.00 0.00 3.11 4.39
220.00 288.00 0.00 3.13 4.37
221.00 288.00 0.00 3.15 4.35
222.00 288.00 0.00 3.17 4.33
223.00 288.00 0.00 3.19 4.31
224.00 288.00 0.00 3.21 4.29
225.00 288.00 0.00 3.23 4.27
226.00 288.00 0.00 3.25 4.25
227.00 288.00 0.00 3.27 4.23
228.00 288.00 0.00 3.29 4.21
229.00 288.00 0.00 3.32 4.19
230.00 288.00 0.00 3.34 4.17
231.00 288.00 0.00 3.36 4.14
232.00 288.00 0.00 3.38 4.12
233.00 288.00 0.00 3.40 4.10
234.00 288.00 0.00 3.42 4.08
235.00 288.00 0.00 3.45 4.06
236.00 288.00 0.00 3.47 4.04
237.00 288.00 0.00 3.49 4.01
238.00 288.00 0.00 3.51 3.99
239.00 288.00 0.00 3.53 3.97
240.00 288.00 0.00 3.56 3.95
241.00 288.00 0.00 3.58 3.92
242.00 288.00 0.00 3.60 3.90
243.00 288.00 0.00 3.63 3.88
244.00 288.00 0.00 3.65 3.85
245.00 288.00 0.00 3.67 3.83
246.00 288.00 0.00 3.70 3.81
247.00 288.00 0.00 3.72 3.78
248.00 288.00 0.00 3.74 3.76
249.00 288.00 0.00 3.77 3.73
250.00 288.00 0.00 3.79 3.71
251.00 288.00 0.00 3.81 3.68
252.00 288.00 0.00 3.84 3.66
253.00 288.00 0.00 3.86 3.63
254.00 288.00 0.00 3.89 3.60
255.00 288.00 0.00 3.91 3.58
256.00 288.00 0.00 3.94 3.55
257.00 288.00 0.00 3.96 3.53
258.00 288.00 0.00 3.99 3.50
259.00 288.00 0.00 4.01 3.47
260.00 288.00 0.00 4.04 3.45
261.00 288.00 0.00 4.06 3.42
262.00 288.00 0.00 4.09 3.39
263.00 288.00 0.00 4.11 3.37
264.00 288.00 0.00 4.14 3.34
265.00 288.00 0.00 4.16 3.31
266.00 288.00 0.00 4.19 3.29
267.00 288.00 0.00 4.21 3.26
268.00 288.00 0.00 4.24 3.23
269.00 288.00 0.00 4.26 3.21
270.00 288.00 0.00 4.29 3.18
271.00 288.00 0.00 4.31 3.15
272.00 288.00 0.00 4.34 3.12
273.00 288.00 0.00 4.36 3.10
274.00 288.00 0.00 4.39 3.07
275.00 288.00 0.00 4.41 3.04
276.00 288.00 0.00 4.44 3.01
277.00 288.00 0.00 4.46 2.99
278.00 288.00 0.00 4.49 2.96
279.00 288.00 0.00 4.51 2.93
280.00 288.00 0.00 4.54 2.90
281.00 288.00 0.00 4.56 2.88
282.00 288.00 0.00 4.59 2.85
283.00 288.00 0.00 4.61 2.82
284.00 288.00 0.00 4.64 2.79
285.00 288.00 0.00 4.66 2.76
286.00 288.00 0.00 4.69 2.74
287.00 288.00 0.00 4.71 2.71
288.00 288.00 0.00 4.74 2.68
289.00 288.00 0.00 4.76 2.65
290.00 288.00 0.00 4.79 2.62
291.00 288.00 0.00 4.81 2.59
292.00 288.00 0.00 4.84 2.57
293.00 288.00 0.00 4.86 2.54
294.00 288.00 0.00 4.89 2.51
295.00 288.00 0.00 4.91 2.48
296.00 288.00 0.00 4.94 2.45
297.00 288.00 0.00 4.96 2.42
298.00 288.00 0.00 4.99 2.39
299.00 288.00 0.00 5.01 2.37
300.00 288.00 0.00 5.04 2.34
301.00 288.00 0.00 5.06 2.31
302.00 288.00 0.00 5.09 2.28
303.00 288.00 0.00 5.11 2.25
304.00 288.00 0.00 5.14 2.22
305.00 288.00 0.00 5.16 2.19
306.00 288.00 0.00 5.19 2.16
307.00 288.00 0.00 5.21 2.13
308.00 288.00 0.00 5.24 2.10
309.00 288.00 0.00 5.26 2.08
310.00 288.00 0.00 5.29 2.05
311.00 288.00 0.00 5.31 2.02
312.00 288.00 0.00 5.34 1.99
313.00 288.00 0.00 5.36 1.96
314.00 288.00 0.00 5.39 1.93
315.00 288.00 0.00 5.41 1.90
316.00 288.00 0.00 5.44 1.87
317.00 288.00 0.00 5.46 1.84
318.00 288.00 0.00 5.49 1.81
319.00 288.00 0.00 5.51 1.78
320.00 288.00 0.00 5.54 1.75
321.00 288.00 0.00 5.56 1.72
322.00 288.00 0.00 5.59 1.69
323.00 288.00 0.00 5.61 1.66
324.00 288.00 0.00 5.64 1.63
325.00 288.00 0.00 5.66 1.60
326.00 288.00 0.00 5.69 1.57
327.00 288.00 0.00 5.71 1.54
328.00 288.00 0.00 5.74 1.52
329.00 288.00 0.00 5.76 1.49
330.00 288.00 0.00 5.79 1.46
331.00 288.00 0.00 5.81 1.43
332.00 288.00 0.00 5.84 1.40
333.00 288.00 0.00 5.86 1.37
334.00 288.00 0.00 5.89 1.34
335.00 288.00 0.00 5.91 1.31
336.00 288.00 0.00 5.94 1.28
337.00 288.00 0.00 5.96 1.25
338.00 288.00 0.00 5.99 1.22
339.00 288.00 0.00 6.01 1.19
340.00 288.00 0.00 6.04 1.16
341.00 288.00 0.00 6.06 1.13
342.00 288.00 0.00 6.09 1.10
343.00 288.00 0.00 6.11 1.06
344.00 288.00 0.00 6.14 1.03
345.00 288.00 0.00 6.16 1.00
346.00 288.00 0.00 6.19 0.97
347.00 288.00 0.00 6.21 0.94
348.00 288.00 0.00 6.24 0.91
349.00 288.00 0.00 6.26 0.88
350.00 288.00 0.00 6.29 0.85
351.00 288.00 0.00 6.31 0.82
352.00 288.00 0.00 6.34 0.79
353.00 288.00 0.00 6.36 0.76
354.00 288.00 0.00 6.39 0.73
355.00 288.00 0.00 6.41 0.70
356.00 288.00 0.00 6.44 0.67
357.00 288.00 0.00 6.46 0.64
358.00 288.00 0.00 6.49 0.61
359.00 288.00 0.00 6.51 0.58
360.00 288.00 0.00 6.54 0.55
361.00 288.00 0.00 6.56 0.52
362.00 288.00 0.00 6.59 0.49
363.00 288.00 0.00 6.61 0.46
364.00 288.00 0.00 6.64 0.43
365.00 288.00 0.00 6.66 0.40
366.00 288.00 0.00 6.69 0.37
367.00 288.00 0.00 6.71 0.34
368.00 288.00 0.00 6.74 0.31
369.00 288.00 0.00 6.76 0.27
370.00 288.00 0.00 6.79 0.24
371.00 288.00 0.00 6.81 0.21
372.00 288.00 0.00 6.84 0.18
373.00 288.00 0.00 6.86 0.15
374.00 288.00 0.00 6.89 0.12
375.00 288.00 0.00 6.91 0.09
376.00 288.00 0.00 6.94 0.06
377.00 288.00 0.00 6.96 0.03
378.00 288.00 0.00 6.99 0.00
379.00 288.00 0.00 7.01 -0.03
380.00 288.00 0.00 7.04 -0.06
381.00 288.00 0.00 7.06 -0.09
382.00 288.00 0.00 7.09 -0.12
383.00 288.00 0.00 7.11 -0.15
384.00 288.00 0.00 7.14 -0.18
385.00 288.00 0.00 7.16 -0.21
386.00 288.00 0.00 7.19 -0.24
387.00 288.00 0.00 7.21 -0.27
388.00 288.00 0.00 7.24 -0.31
389.00 288.00 0.00 7.26 -0.34
390.00 288.00 0.00 7.29 -0.37
391.00 288.00 0.00 7.31 -0.40
392.00 288.00 0.00 7.34 -0.43
393.00 288.00 0.00 7.36 -0.46
394.00 288.00 0.00 7.39 -0.49
395.00 288.00 0.00 7.41 -0.52
396.00 288.00 0.00 7.44 -0.55
397.00 288.00 0.00 7.46 -0.58
398.00 288.00 0.00 7.49 -0.61
399.00 288.00 0.00 7.51 -0.64
400.00 288.00 0.00 7.54 -0.67
401.00 288.00 0.00 7.56 -0.70
402.00 288.00 0.00 7.59 -0.73
403.00 288.00 0.00 7.61 -0.76
404.00 288.00 0.00 7.64 -0.79
405.00 288.00 0.00 7.66 -0.82
406.00 288.00 0.00 7.69 -0.85
407.00 288.00 0.00 7.71 -0.88
408.00 288.00 0.00 7.74 -0.91
409.00 288.00 0.00 7.76 -0.94
410.00 288.00 0.00 7.79 -0.97
411.00 288.00 0.00 7.81 -1.00
412.00 288.00 0.00 7.84 -1.03
413.00 288.00 0.00 7.86 -1.06
414.00 288.00 0.00 7.89 -1.10
415.00 288.00 0.00 7.91 -1.13
416.00 288.00 0.00 7.94 -1.16
417.00 288.00 0.00 7.96 -1.19
418.00 288.00 0.00 7.99 -1.22
419.00 288.00 0.00 8.01 -1.25
420.00 288.00 0.00 8.04 -1.28
421.00 288.00 0.00 8.06 -1.31
422.00 288.00 0.00 8.09 -1.34
423.00 288.00 0.00 8.11 -1.37
424.00 288.00 0.00 8.14 -1.40
425.00 288.00 0.00 8.16 -1.43
426.00 288.00 0.00 8.19 -1.46
427.00 288.00 0.00 8.21 -1.49
428.00 288.00 0.00 8.24 -1.52
429.00 288.00 0.00 8.26 -1.54
430.00 288.00 0.00 8.29 -1.57
431.00 288.00 0.00 8.31 -1.60
432.00 288.00 0.00 8.34 -1.63
433.00 288.00 0.00 8.36 -1.66
434.00 288.00 0.00 8.39 -1.69
435.00 288.00 0.00 8.41 -1.72
436.00 288.00 0.00 8.44 -1.75
437.00 288.00 0.00 8.46 -1.78
438.00 288.00 0.00 8.49 -1.81
439.00 288.00 0.00 8.51 -1.84
440.00 288.00 0.00 8.54 -1.87
441.00 288.00 0.00 8.56 -1.90
442.00 288.00 0.00 8.59 -1.93
443.00 288.00 0.00 8.61 -1.96
444.00 288.00 0.00 8.64 -1.99
445.00 288.00 0.00 8.66 -2.02
446.00 288.00 0.00 8.69 -2.05
447.00 288.00 0.00 8.71 -2.08
448.00 288.00 0.00 8.74 -2.10
449.00 288.00 0.00 8.76 -2.13
450.00 288.00 0.00 8.79 -2.16
451.00 288.00 0.00 8.81 -2.19
452.00 288.00 0.00 8.84 -2.22
453.00 288.00 0.00 8.86 -2.25
454.00 288.00 0.00 8.89 -2.28
455.00 288.00 0.00 8.91 -2.31
456.00 288.00 0.00 8.94 -2.34
457.00 288.00 0.00 8.96 -2.37
458.00 288.00 0.00 8.99 -2.39
459.00 288.00 0.00 9.01 -2.42
460.00 288.00 0.00 9.04 -2.45
461.00 288.00 0.00 9.06 -2.48
462.00 288.00 0.00 9.09 -2.51
463.00 288.00 0.00 9.11 -2.54
464.00 288.00 0.00 9.14 -2.57
465.00 288.00 0.00 9.16 -2.59
466.00 288.00 0.00 9.19 -2.62
467.00 288.00 0.00 9.21 -2.65
468.00 288.00 0.00 9.24 -2.68
469.00 288.00 0.00 9.26 -2.71
470.00 288.00 0.00 9.29 -2.74
471.00 288.00 0.00 9.31 -2.76
472.00 288.00 0.00 9.34 -2.79
473.00 288.00 0.00 9.36 -2.82
474.00 288.00 0.00 9.39 -2.85
475.00 288.00 0.00 9.41 -2.88
476.00 288.00 0.00 9.44 -2.90
477.00 288.00 0.00 9.46 -2.93
478.00 288.00 0.00 9.49 -2.96
479.00 288.00 0.00 9.51 -2.99
480.00 288.00 0.00 9.54 -3.01
481.00 288.00 0.00 9.56 -3.04
482.00 288.00 0.00 9.59 -3.07
483.00 288.00 0.00 9.61 -3.10
484.00 288.00 0.00 9.64 -3.12
485.00 288.00 0.00 9.66 -3.15
486.00 288.00 0.00 9.69 -3.18
487.00 288.00 0.00 9.71 -3.21
488.00 288.00 0.00 9.74 -3.23
489.00 288.00 0.00 9.76 -3.26
490.00 288.00 0.00 9.79 -3.29
491.00 288.00 0.00 9.81 -3.31
492.00 288.00 0.00 9.84 -3.34
493.00 288.00 0.00 9.86 -3.37
494.00 288.00 0.00 9.89 -3.39
495.00 288.00 0.00 9.91 -3.42
496.00 288.00 0.00 9.94 -3.45
497.00 288.00 0.00 9.96 -3.47
498.00 288.00 0.00 9.99 -3.50
499.00 288.00 0.00 10.01 -3.53
500.00 288.00 0.00 10.04 -3.55
501.00 288.00 0.00 10.06 -3.58
502.00 288.00 0.00 10.09 -3.60
503.00 288.00 0.00 10.11 -3.63
504.00 288.00 0.00 10.14 -3.66
505.00 288.00 0.00 10.16 -3.68
506.00 288.00 0.00 10.19 -3.71
507.00 288.00 0.00 10.21 -3.73
508.00 288.00 0.00 10.23 -3.76
509.00 288.00 0.00 10.26 -3.78
510.00 288.00 0.00 10.28 -3.81
511.00 288.00 0.00 10.30 -3.83
512.00 288.00 0.00 10.33 -3.85
513.00 288.00 0.00 10.35 -3.88
514.00 288.00 0.00 10.37 -3.90
515.00 288.00 0.00 10.40 -3.92
516.00 288.00 0.00 10.42 -3.95
517.00 288.00 0.00 10.44 -3.97
518.00 288.00 0.00 10.47 -3.99
519.00 288.00 0.00 10.49 -4.01
520.00 288.00 0.00 10.51 -4.04
521.00 288.00 0.00 10.53 -4.06
522.00 288.00 0.00 10.55 -4.08
523.00 288.00 0.00 10.58 -4.10
524.00 288.00 0.00 10.60 -4.12
525.00 288.00 0.00 10.62 -4.14
526.00 288.00 0.00 10.64 -4.17
527.00 288.00 0.00 10.66 -4.19
528.00 288.00 0.00 10.68 -4.21
529.00 288.00 0.00 10.71 -4.23
530.00 288.00 0.00 10.73 -4.25
531.00 288.00 0.00 10.75 -4.27
532.00 288.00 0.00 10.77 -4.29
533.00 288.00 0.00 10.79 -4.31
534.00 288.00 0.00 10.81 -4.33
535.00 288.00 0.00 10.83 -4.35
536.00 288.00 0.00 10.85 -4.37
537.00 288.00 0.00 10.87 -4.39
538.00 288.00 0.00 10.89 -4.40
539.00 288.00 0.00 10.91 -4.42
540.00 288.00 0.00 10.93 -4.44
541.00 288.00 0.00 10.95 -4.46
542.00 288.00 0.00 10.97 -4.48
543.00 288.00 0.00 10.99 -4.50
544.00 288.00 0.00 11.00 -4.51
545.00 288.00 0.00 11.02 -4.53
546.00 288.00 0.00 11.04 -4.55
547.00 288.00 0.00 11.06 -4.56
548.00 288.00 0.00 11.08 -4.58
549.00 288.00 0.00 11.10 -4.60
550.00 288.00 0.00 11.12 -4.62
551.00 288.00 0.00 11.13 -4.63
552.00 288.00 0.00 11.15 -4.65
553.00 288.00 0.00 11.17 -4.66
554.00 288.00 0.00 11.19 -4.68
555.00 288.00 0.00 11.20 -4.70
556.00 288.00 0.00 11.22 -4.71
557.00 288.00 0.00 11.24 -4.73
558.00 288.00 0.00 11.26 -4.74
559.00 288.00 0.00 11.27 -4.76
560.00 288.00 0.00 11.29 -4.77
561.00 288.00 0.00 11.31 -4.79
562.00 288.00 0.00 11.32 -4.80
563.00 288.00 0.00 11.34 -4.82
564.00 288.00 0.00 11.36 -4.83
565.00 288.00 0.00 11.37 -4.84
566.00 288.00 0.00 11.39 -4.86
567.00 288.00 0.00 11.40 -4.87
568.00 288.00 0.00 11.42 -4.89
569.00 288.00 0.00 11.43 -4.90
570.00 288.00 0.00 11.45 -4.91
571.00 288.00 0.00 11.47 -4.93
572.00 288.00 0.00 11.48 -4.94
573.00 288.00 0.00 11.50 -4.95
574.00 288.00 0.00 11.51 -4.96
575.00 288.00 0.00 11.52 -4.98
576.00 288.00 0.00 11.54 -4.99
577.00 288.00 0.00 11.55 -5.00
578.00 288.00 0.00 11.57 -5.01
579.00 288.00 0.00 11.58 -5.03
580.00 288.00 0.00 11.60 -5.04
581.00 288.00 0.00 11.61 -5.05
582.00 288.00 0.00 11.62 -5.06
583.00 288.00 0.00 11.64 -5.07
584.00 288.00 0.00 11.65 -5.08
585.00 288.00 0.00 11.66 -5.10
586.00 288.00 0.00 11.68 -5.11
587.00 288.00 0.00 11.69 -5.12
588.00 288.00 0.00 11.70 -5.13
589.00 288.00 0.00 11.72 -5.14
590.00 288.00 0.00 11.73 -5.15
591.00 288.00 0.00 11.74 -5.16
592.00 288.00 0.00 11.75 -5.17
593.00 288.00 0.00 11.77 -5.18
594.00 288.00 0.00 11.78 -5.19
595.00 288.00 0.00 11.79 -5.20
596.00 288.00 0.00 11.80 -5.21
597.00 288.00 0.00 11.81 -5.22
598.00 288.00 0.00 11.82 -5.23
599.00 288.00 0.00 11.84 -5.24
600.00 288.00 0.00 11.85 -5.24
601.00 288.00 0.00 11.86 -5.25
602.00 288.00 0.00 11.87 -5.26
603.00 288.00 0.00 11.88 -5.27
604.00 288.00 0.00 11.89 -5.28
605.00 288.00 0.00 11.90 -5.29
606.00 288.00 0.00 11.91 -5.30
607.00 288.00 0.00 11.92 -5.30
608.00 288.00 0.00 11.93 -5.31
609.00 288.00 0.00 11.94 -5.32
610.00 288.00 0.00 11.95 -5.33
611.00 288.00 0.00 11.96 -5.34
612.00 288.00 0.00 11.97 -5.34
613.00 288.00 0.00 11.98 -5.35
614.00 288.00 0.00 11.99 -5.36
615.00 288.00 0.00 12.00 -5.36
616.00 288.00 0.00 12.01 -5.37
617.00 288.00 0.00 12.02 -5.38
618.00 288.00 0.00 12.03 -5.39
619.00 288.00 0.00 12.03 -5.39
620.00 288.00 0.00 12.04 -5.40
621.00 288.00 0.00 12.05 -5.40
622.00 288.00 0.00 12.06 -5.41
623.00 288.00 0.00 12.07 -5.42
624.00 288.00 0.00 12.07 -5.42
625.00 288.00 0.00 12.08 -5.43
626.00 288.00 0.00 12.09 -5.43
627.00 288.00 0.00 12.10 -5.44
628.00 288.00 0.00 12.10 -5.45
629.00 288.00 0.00 12.11 -5.45
630.00 288.00 0.00 12.12 -5.46
631.00 288.00 0.00 12.13 -5.46
632.00 288.00 0.00 12.13 -5.47
633.00 288.00 0.00 12.14 -5.47
634.00 288.00 0.00 12.15 -5.48
635.00 288.00 0.00 12.15 -5.48
636.00 288.00 0.00 12.16 -5.49
637.00 288.00 0.00 12.16 -5.49
638.00 288.00 0.00 12.17 -5.50
639.00 288.00 0.00 12.18 -5.50
640.00 288.00 0.00 12.18 -5.50
641.00 288.00 0.00 12.19 -5.51
642.00 288.00 0.00 12.19 -5.51
643.00 288.00 0.00 12.20 -5.52
644.00 288.00 0.00 12.20 -5.52
645.00 288.00 0.00 12.21 -5.52
646.00 288.00 0.00 12.21 -5.53
647.00 288.00 0.00 12.22 -5.53
648.00 288.00 0.00 12.22 -5.53
649.00 288.00 0.00 12.23 -5.54
650.00 288.00 0.00 12.23 -5.54
651.00 288.00 0.00 12.23 -5.54
652.00 288.00 0.00 12.24 -5.55
653.00 288.00 0.00 12.24 -5.55
654.00 288.00 0.00 12.25 -5.55
655.00 288.00 0.00 12.25 -5.55
656.00 288.00 0.00 12.25 -5.56
657.00 288.00 0.00 12.26 -5.56
658.00 288.00 0.00 12.26 -5.56
659.00 288.00 0.00 12.26 -5.56
660.00 288.00 0.00 12.27 -5.57
661.00 288.00 0.00 12.27 -5.57
662.00 288.00 0.00 12.27 -5.57
663.00 288.00 0.00 12.27 -5.57
664.00 288.00 0.00 12.28 -5.57
665.00 288.00 0.00 12.28 -5.57
666.00 288.00 0.00 12.28 -5.58
667.00 288.00 0.00 12.28 -5.58
668.00 288.00 0.00 12.28 -5.58
669.00 288.00 0.00 12.28 -5.58
670.00 288.00 0.00 12.29 -5.58
671.00 288.00 0.00 12.29 -5.58
672.00 288.00 0.00 12.29 -5.58
673.00 288.00 0.00 12.29 -5.58
674.00 288.00 0.00 12.29 -5.58
675.00 288.00 0.00 12.29 -5.58
676.00 288.00 0.00 12.29 -5.59
677.00 288.00 0.00 12.29 -5.59
678.00 288.00 0.00 12.29 -5.59
679.00 288.00 0.00 12.29 -5.59
680.00 288.00 0.00 12.29 -5.59
681.00 288.00 0.00 12.29 -5.59
682.00 288.00 0.00 12.29 -5.59
683.00 288.00 0.00 12.29 -5.59
684.00 288.00 0.00 12.29 -5.59
685.00 288.00 0.00 12.29 -5.59
686.00 288.00 0.00 12.29 -5.59
687.00 288.00 0.00 12.29 -5.59
688.00 288.00 0.00 12.29 -5.59
689.00 288.00 0.00 12.29 -5.59
690.00 288.00 0.00 12.29 -5.59
691.00 288.00 0.00 12.29 -5.59
692.00 288.00 0.00 12.29 -5.59
693.00 288.00 0.00 12.29 -5.59
694.00 288.00 0.00 12.29 -5.59
695.00 288.00 0.00 12.29 -5.59
696.00 288.00 0.00 12.29 -5.59
697.00 288.00 0.00 12.29 -5.59
698.00 288.00 0.00 12.29 -5.59
699.00 288.00 0.00 12.29 -5.59
700.00 288.00 0.00 12.29 -5.59
701.00 288.00 0.00 12.29 -5.59
702.00 288.00 0.00 12.29 -5.59
703.00 288.00 0.00 12.29 -5.59
704.00 288.00 0.00 12.29 -5.59
705.00 288.00 0.00 12.29 -5.59
706.00 288.00 0.00 12.29 -5.59
707.00 288.00 0.00 12.29 -5.59
708.00 288.00 0.00 12.29 -5.59
709.00 288.00 0.00 12.29 -5.59
710.00 288.00 0.00 12.29 -5.59
711.00 288.00 0.00 12.29 -5.59
712.00 288.00 0.00 12.29 -5.59
713.00 288.00 0.00 12.29 -5.59
714.00 288.00 0.00 12.29 -5.59
715.00 288.00 0.00 12.29 -5.59
716.00 288.00 0.00 12.29 -5.59
717.00 288.00 0.00 12.29 -5.59
718.00 288.00 0.00 12.29 -5.59
719.00 288.00 0.00 12.29 -5.59
720.00 288.00 0.00 12.29 -5.59
721.00 288.00 0.00 12.29 -5.59
722.00 288.00 0.00 12.29 -5.59
723.00 288.00 0.00 12.29 -5.59
724.00 288.00 0.00 12.29 -5.59
725.00 288.00 0.00 12.29 -5.59
726.00 288.00 0.00 12.29 -5.59
727.00 288.00 0.00 12.29 -5.59
728.00 288.00 0.00 12.29 -5.59
729.00 288.00 0.00 12.29 -5.59
730.00 288.00 0.00 12.29 -5.59
731.00 288.00 0.00 12.29 -5.59
732.00 288.00 0.00 12.29 -5.59
733.00 288.00 0.00 12.29 -5.59
734.00 288.00 0.00 12.29 -5.59
735.00 288.00 0.00 12.29 -5.59
736.00 288.00 0.00 12.29 -5.59
737.00 288.00 0.00 12.29 -5.59
738.00 288.00 0.00 12.29 -5.59
739.00 288.00 0.00 12.29 -5.59
740.00 288.00 0.00 12.29 -5.59
741.00 288.00 0.00 12.29 -5.59
742.00 288.00 0.00 12.29 -5.59
743.00 288.00 0.00 12.29 -5.59
744.00 288.00 0.00 12.29 -5.59
745.00 288.00 0.00 12.29 -5.59
746.00 288.00 0.00 12.29 -5.59
747.00 288.00 0.00 12.29 -5.59
748.00 288.00 0.00 12.29 -5.59
749.00 288.00 0.00 12.29 -5.59
750.00 288.00 0.00 12.29 -5.59
751.00 288.00 0.00 12.29 -5.59
752.00 288.00 0.00 12.29 -5.59
753.00 288.00 0.00 12.29 -5.59
754.00 288.00 0.00 12.29 -5.59
755.00 288.00 0.00 12.29 -5.59
756.00 288.00 0.00 12.29 -5.59
757.00 288.00 0.00 12.29 -5.59
758.00 288.00 0.00 12.29 -5.59
759.00 288.00 0.00 12.29 -5.59
760.00 288.00 0.00 12.29 -5.59
761.00 288.00 0.00 12.29 -5.59
762.00 288.00 0.00 12.29 -5.59
763.00 288.00 0.00 12.29 -5.59
764.00 288.00 0.00 12.29 -5.59
765.00 288.00 0.00 12.29 -5.59
766.00 288.00 0.00 12.29 -5.59
767.00 288.00 0.00 12.29 -5.59
768.00 288.00 0.00 12.29 -5.59
769.00 288.00 0.00 12.29 -5.59
770.00 288.00 0.00 12.29 -5.59
771.00 288.00 0.00 12.29 -5.59
772.00 288.00 0.00 12.29 -5.59
773.00 288.00 0.00 12.29 -5.59
774.00 288.00 0.00 12.29 -5.59
775.00 288.00 0.00 12.29 -5.59
776.00 288.00 0.00 12.29 -5.59
777.00 288.00 0.00 12.29 -5.59
778.00 288.00 0.00 12.29 -5.59
779.00 288.00 0.00 12.29 -5.59
780.00 288.00 0.00 12.29 -5.59
781.00 288.00 0.00 12.29 -5.59
782.00 288.00 0.00 12.29 -5.59
783.00 288.00 0.00 12.29 -5.59
784.00 288.00 0.00 12.29 -5.59
785.00 288.00 0.00 12.29 -5.59
786.00 288.00 0.00 12.29 -5.59
787.00 288.00 0.00 12.29 -5.59
788.00 288.00 0.00 12.29 -5.59
789.00 288.00 0.00 12.29 -5.59
790.00 288.00 0.00 12.29 -5.59
791.00 288.00 0.00 12.29 -5.59
792.00 288.00 0.00 12.29 -5.59
793.00 288.00 0.00 12.29 -5.59
794.00 288.00 0.00 12.29 -5.59
795.00 288.00 0.00 12.29 -5.59
796.00 288.00 0.00 12.29 -5.59
797.00 288.00 0.00 12.29 -5.59
798.00 288.00 0.00 12.29 -5.59
799.00 288.00 0.00 12.29 -5.59
800.00 288.00 0.00 12.29 -5.59
801.00 288.00 0.00 12.29 -5.59
802.00 288.00 0.00 12.29 -5.59
803.00 288.00 0.00 12.29 -5.59
804.00 288.00 0.00 12.29 -5.59
805.00 288.00 0.00 12.29 -5.59
806.00 288.00 0.00 12.29 -5.59
807.00 288.00 0.00 12.29 -5.59
808.00 288.00 0.00 12.29 -5.59
809.00 288.00 0.00 12.29 -5.59
810.00 288.00 0.00 12.29 -5.59
811.00 288.00 0.00 12.29 -5.59
812.00 288.00 0.00 12.29 -5.59
813.00 288.00 0.00 12.29 -5.59
814.00 288.00 0.00 12.29 -5.59
815.00 288.00 0.00 12.29 -5.59
816.00 288.00 0.00 12.29 -5.59
817.00 288.00 0.00 12.29 -5.59
818.00 288.00 0.00 12.29 -5.59
819.00 288.00 0.00 12.29 -5.59
820.00 288.00 0.00 12.29 -5.59
821.00 288.00 0.00 12.29 -5.59
822.00 288.00 0.00 12.29 -5.59
823.00 288.00 0.00 12.29 -5.59
824.00 288.00 0.00 12.29 -5.59
825.00 288.00 0.00 12.29 -5.59
826.00 288.00 0.00 12.29 -5.59
827.00 288.00 0.00 12.29 -5.59
828.00 288.00 0.00 12.29 -5.59
829.00 288.00 0.00 12.29 -5.59
830.00 288.00 0.00 12.29 -5.59
831.00 288.00 0.00 12.29 -5.59
