1000.00 288.00 00.00
0.00 288.00 0.00 13.09 -0.74
1.00 288.00 0.00 13.09 -0.74
2.00 288.00 0.00 13.09 -0.74
3.00 288.00 0.00 13.09 -0.74
4.00 288.00 0.00 13.09 -0.74
5.00 288.00 0.00 13.09 -0.74
6.00 288.00 0.00 13.09 -0.74
7.00 288.00 0.00 13.09 -0.74
8.00 288.00 0.00 13.09 -0.74
9.00 288.00 0.00 13.09 -0.74
10.00 288.00 0.00 13.09 -0.74
11.00 288.00 0.00 13.09 -0.74
12.00 288.00 0.00 13.09 -0.74
13.00 288.00 0.00 13.09 -0.74
14.00 288.00 0.00 13.09 -0.74
15.00 288.00 0.00 13.09 -0.74
16.00 288.00 0.00 13.09 -0.74
17.00 288.00 0.00 13.09 -0.74
18.00 288.00 0.00 13.09 -0.74
19.00 288.00 0.00 13.09 -0.74
20.00 288.00 0.00 13.09 -0.74
21.00 288.00 0.00 13.09 -0.74
22.00 288.00 0.00 13.09 -0.74
23.00 288.00 0.00 13.09 -0.74
24.00 288.00 0.00 13.09 -0.74
25.00 288.00 0.00 13.09 -0.74
26.00 288.00 0.00 13.09 -0.74
27.00 288.00 0.00 13.09 -0.74
28.00 288.00 0.00 13.09 -0.74
29.00 288.00 0.00 13.09 -0.74
30.00 288.00 0.00 13.09 -0.74
31.00 288.00 0.00 13.09 -0.74
32.00 288.00 0.00 13.09 -0.74
33.00 288.00 0.00 13.09 -0.74
34.00 288.00 0.00 13.09 -0.74
35.00 288.00 0.00 13.09 -0.74
36.00 288.00 0.00 13.09 -0.74
37.00 288.00 0.00 13.09 -0.74
38.00 288.00 0.00 13.09 -0.74
39.00 288.00 0.00 13.09 -0.74
40.00 288.00 0.00 13.09 -0.74
41.00 288.00 0.00 13.09 -0.74
42.00 288.00 0.00 13.09 -0.74
43.00 288.00 0.00 13.09 -0.74
44.00 288.00 0.00 13.09 -0.74
45.00 288.00 0.00 13.09 -0.74
46.00 288.00 0.00 13.09 -0.74
47.00 288.00 0.00 13.09 -0.74
48.00 288.00 0.00 13.09 -0.74
49.00 288.00 0.00 13.09 -0.74
50.00 288.00 0.00 13.09 -0.74
51.00 288.00 0.00 13.09 -0.74
52.00 288.00 0.00 13.09 -0.74
53.00 288.00 0.00 13.09 -0.74
54.00 288.00 0.00 13.09 -0.74
55.00 288.00 0.00 13.09 -0.74
56.00 288.00 0.00 13.09 -0.74
57.00 288.00 0.00 13.09 -0.74
58.00 288.00 0.00 13.09 -0.74
59.00 288.00 0.00 13.09 -0.74
60.00 288.00 0.00 13.09 -0.74
61.00 288.00 0.00 13.09 -0.74
62.00 288.00 0.00 13.09 -0.74
63.00 288.00 0.00 13.09 -0.74
64.00 288.00 0.00 13.09 -0.74
65.00 288.00 0.00 13.09 -0.74
66.00 288.00 0.00 13.09 -0.74
67.00 288.00 0.00 13.09 -0.74
68.00 288.00 0.00 13.09 -0.74
69.00 288.00 0.00 13.09 -0.74
70.00 288.00 0.00 13.09 -0.74
71.00 288.00 0.00 13.09 -0.74
72.00 288.00 0.00 13.09 -0.74
73.00 288.00 0.00 13.09 -0.74
74.00 288.00 0.00 13.09 -0.74
75.00 288.00 0.00 13.09 -0.74
76.00 288.00 0.00 13.09 -0.74
77.00 288.00 0.00 13.09 -0.74
78.00 288.00 0.00 13.09 -0.74
79.00 288.00 0.00 13.09 -0.74
80.00 288.00 0.00 13.09 -0.74
81.00 288.00 0.00 13.09 -0.74
82.00 288.00 0.00 13.09 -0.74
83.00 288.00 0.00 13.09 -0.74
84.00 288.00 0.00 13.09 -0.74
85.00 288.00 0.00 13.09 -0.74
86.00 288.00 0.00 13.09 -0.74
87.00 288.00 0.00 13.09 -0.74
88.00 288.00 0.00 13.09 -0.74
89.00 288.00 0.00 13.09 -0.74
90.00 288.00 0.00 13.09 -0.74
91.00 288.00 0.00 13.09 -0.74
92.00 288.00 0.00 13.09 -0.74
93.00 288.00 0.00 13.09 -0.74
94.00 288.00 0.00 13.09 -0.74
95.00 288.00 0.00 13.09 -0.74
96.00 288.00 0.00 13.09 -0.74
97.00 288.00 0.00 13.09 -0.74
98.00 288.00 0.00 13.09 -0.74
99.00 288.00 0.00 13.09 -0.74
100.00 288.00 0.00 13.09 -0.74
101.00 288.00 0.00 13.09 -0.74
102.00 288.00 0.00 13.09 -0.74
103.00 288.00 0.00 13.09 -0.74
104.00 288.00 0.00 13.09 -0.74
105.00 288.00 0.00 13.09 -0.74
106.00 288.00 0.00 13.09 -0.74
107.00 288.00 0.00 13.09 -0.74
108.00 288.00 0.00 13.09 -0.74
109.00 288.00 0.00 13.09 -0.74
110.00 288.00 0.00 13.09 -0.74
111.00 288.00 0.00 13.09 -0.74
112.00 288.00 0.00 13.09 -0.74
113.00 288.00 0.00 13.09 -0.74
114.00 288.00 0.00 13.09 -0.74
115.00 288.00 0.00 13.09 -0.74
116.00 288.00 0.00 13.09 -0.74
117.00 288.00 0.00 13.09 -0.74
118.00 288.00 0.00 13.09 -0.74
119.00 288.00 0.00 13.09 -0.74
120.00 288.00 0.00 13.09 -0.74
121.00 288.00 0.00 13.09 -0.74
122.00 288.00 0.00 13.09 -0.74
123.00 288.00 0.00 13.09 -0.74
124.00 288.00 0.00 13.09 -0.74
125.00 288.00 0.00 13.08 -0.74
126.00 288.00 0.00 13.08 -0.74
127.00 288.00 0.00 13.08 -0.74
128.00 288.00 0.00 13.08 -0.74
129.00 288.00 0.00 13.07 -0.74
130.00 288.00 0.00 13.07 -0.74
131.00 288.00 0.00 13.07 -0.74
132.00 288.00 0.00 13.06 -0.74
133.00 288.00 0.00 13.06 -0.74
134.00 288.00 0.00 13.06 -0.74
135.00 288.00 0.00 13.05 -0.74
136.00 288.00 0.00 13.05 -0.74
137.00 288.00 0.00 13.04 -0.74
138.00 288.00 0.00 13.04 -0.74
139.00 288.00 0.00 13.04 -0.74
140.00 288.00 0.00 13.03 -0.74
141.00 288.00 0.00 13.03 -0.73
142.00 288.00 0.00 13.02 -0.73
143.00 288.00 0.00 13.01 -0.73
144.00 288.00 0.00 13.01 -0.73
145.00 288.00 0.00 13.00 -0.73
146.00 288.00 0.00 13.00 -0.73
147.00 288.00 0.00 12.99 -0.73
148.00 288.00 0.00 12.98 -0.73
149.00 288.00 0.00 12.98 -0.73
150.00 288.00 0.00 12.97 -0.73
151.00 288.00 0.00 12.96 -0.73
152.00 288.00 0.00 12.96 -0.73
153.00 288.00 0.00 12.95 -0.73
154.00 288.00 0.00 12.94 -0.72
155.00 288.00 0.00 12.93 -0.72
156.00 288.00 0.00 12.93 -0.72
157.00 288.00 0.00 12.92 -0.72
158.00 288.00 0.00 12.91 -0.72
159.00 288.00 0.00 12.90 -0.72
160.00 288.00 0.00 12.89 -0.72
161.00 288.00 0.00 12.88 -0.72
162.00 288.00 0.00 12.87 -0.72
163.00 288.00 0.00 12.86 -0.71
164.00 288.00 0.00 12.86 -0.71
165.00 288.00 0.00 12.85 -0.71
166.00 288.00 0.00 12.84 -0.71
167.00 288.00 0.00 12.83 -0.71
168.00 288.00 0.00 12.82 -0.71
169.00 288.00 0.00 12.80 -0.71
170.00 288.00 0.00 12.79 -0.71
171.00 288.00 0.00 12.78 -0.70
172.00 288.00 0.00 12.77 -0.70
173.00 288.00 0.00 12.76 -0.70
174.00 288.00 0.00 12.75 -0.70
175.00 288.00 0.00 12.74 -0.70
176.00 288.00 0.00 12.73 -0.70
177.00 288.00 0.00 12.71 -0.70
178.00 288.00 0.00 12.70 -0.69
179.00 288.00 0.00 12.69 -0.69
180.00 288.00 0.00 12.68 -0.69
181.00 288.00 0.00 12.66 -0.69
182.00 288.00 0.00 12.65 -0.69
183.00 288.00 0.00 12.64 -0.69
184.00 288.00 0.00 12.62 -0.69
185.00 288.00 0.00 12.61 -0.68
186.00 288.00 0.00 12.60 -0.68
187.00 288.00 0.00 12.58 -0.68
188.00 288.00 0.00 12.57 -0.68
189.00 288.00 0.00 12.55 -0.68
190.00 288.00 0.00 12.54 -0.67
191.00 288.00 0.00 12.52 -0.67
192.00 288.00 0.00 12.51 -0.67
193.00 288.00 0.00 12.49 -0.67
194.00 288.00 0.00 12.48 -0.67
195.00 288.00 0.00 12.46 -0.67
196.00 288.00 0.00 12.45 -0.66
197.00 288.00 0.00 12.43 -0.66
198.00 288.00 0.00 12.42 -0.66
199.00 288.00 0.00 12.40 -0.66
200.00 288.00 0.00 12.38 -0.66
201.00 288.00 0.00 12.37 -0.65
202.00 288.00 0.00 12.35 -0.65
203.00 288.00 0.00 12.33 -0.65
204.00 288.00 0.00 12.31 -0.65
205.00 288.00 0.00 12.30 -0.65
206.00 288.00 0.00 12.28 -0.64
207.00 288.00 0.00 12.26 -0.64
208.00 288.00 0.00 12.24 -0.64
209.00 288.00 0.00 12.22 -0.64
210.00 288.00 0.00 12.21 -0.63
211.00 288.00 0.00 12.19 -0.63
212.00 288.00 0.00 12.17 -0.63
213.00 288.00 0.00 12.15 -0.63
214.00 288.00 0.00 12.13 -0.62
215.00 288.00 0.00 12.11 -0.62
216.00 288.00 0.00 12.09 -0.62
217.00 288.00 0.00 12.07 -0.62
218.00 288.00 0.00 12.05 -0.62
219.00 288.00 0.00 12.03 -0.61
220.00 288.00 0.00 12.01 -0.61
221.00 288.00 0.00 11.99 -0.61
222.00 288.00 0.00 11.97 -0.61
223.00 288.00 0.00 11.95 -0.60
224.00 288.00 0.00 11.93 -0.60
225.00 288.00 0.00 11.91 -0.60
226.00 288.00 0.00 11.88 -0.59
227.00 288.00 0.00 11.86 -0.59
228.00 288.00 0.00 11.84 -0.59
229.00 288.00 0.00 11.82 -0.59
230.00 288.00 0.00 11.80 -0.58
231.00 288.00 0.00 11.77 -0.58
232.00 288.00 0.00 11.75 -0.58
233.00 288.00 0.00 11.73 -0.58
234.00 288.00 0.00 11.70 -0.57
235.00 288.00 0.00 11.68 -0.57
236.00 288.00 0.00 11.66 -0.57
237.00 288.00 0.00 11.63 -0.56
238.00 288.00 0.00 11.61 -0.56
239.00 288.00 0.00 11.58 -0.56
240.00 288.00 0.00 11.56 -0.56
241.00 288.00 0.00 11.54 -0.55
242.00 288.00 0.00 11.51 -0.55
243.00 288.00 0.00 11.49 -0.55
244.00 288.00 0.00 11.46 -0.54
245.00 288.00 0.00 11.44 -0.54
246.00 288.00 0.00 11.41 -0.54
247.00 288.00 0.00 11.38 -0.53
248.00 288.00 0.00 11.36 -0.53
249.00 288.00 0.00 11.33 -0.53
250.00 288.00 0.00 11.31 -0.52
251.00 288.00 0.00 11.28 -0.52
252.00 288.00 0.00 11.25 -0.52
253.00 288.00 0.00 11.23 -0.51
254.00 288.00 0.00 11.20 -0.51
255.00 288.00 0.00 11.17 -0.51
256.00 288.00 0.00 11.14 -0.50
257.00 288.00 0.00 11.12 -0.50
258.00 288.00 0.00 11.09 -0.50
259.00 288.00 0.00 11.06 -0.49
260.00 288.00 0.00 11.03 -0.49
261.00 288.00 0.00 11.00 -0.49
262.00 288.00 0.00 10.98 -0.48
263.00 288.00 0.00 10.95 -0.48
264.00 288.00 0.00 10.92 -0.48
265.00 288.00 0.00 10.89 -0.47
266.00 288.00 0.00 10.86 -0.47
267.00 288.00 0.00 10.83 -0.47
268.00 288.00 0.00 10.80 -0.46
269.00 288.00 0.00 10.77 -0.46
270.00 288.00 0.00 10.74 -0.45
271.00 288.00 0.00 10.71 -0.45
272.00 288.00 0.00 10.68 -0.45
273.00 288.00 0.00 10.65 -0.44
274.00 288.00 0.00 10.62 -0.44
275.00 288.00 0.00 10.59 -0.44
276.00 288.00 0.00 10.55 -0.43
277.00 288.00 0.00 10.52 -0.43
278.00 288.00 0.00 10.49 -0.42
279.00 288.00 0.00 10.46 -0.42
280.00 288.00 0.00 10.43 -0.42
281.00 288.00 0.00 10.40 -0.41
282.00 288.00 0.00 10.36 -0.41
283.00 288.00 0.00 10.33 -0.40
284.00 288.00 0.00 10.30 -0.40
285.00 288.00 0.00 10.26 -0.40
286.00 288.00 0.00 10.23 -0.39
287.00 288.00 0.00 10.20 -0.39
288.00 288.00 0.00 10.16 -0.38
289.00 288.00 0.00 10.13 -0.38
290.00 288.00 0.00 10.10 -0.38
291.00 288.00 0.00 10.06 -0.37
292.00 288.00 0.00 10.03 -0.37
293.00 288.00 0.00 9.99 -0.36
294.00 288.00 0.00 9.96 -0.36
295.00 288.00 0.00 9.92 -0.35
296.00 288.00 0.00 9.89 -0.35
297.00 288.00 0.00 9.85 -0.35
298.00 288.00 0.00 9.82 -0.34
299.00 288.00 0.00 9.78 -0.34
300.00 288.00 0.00 9.75 -0.33
301.00 288.00 0.00 9.71 -0.33
302.00 288.00 0.00 9.68 -0.32
303.00 288.00 0.00 9.64 -0.32
304.00 288.00 0.00 9.61 -0.32
305.00 288.00 0.00 9.57 -0.31
306.00 288.00 0.00 9.54 -0.31
307.00 288.00 0.00 9.50 -0.30
308.00 288.00 0.00 9.47 -0.30
309.00 288.00 0.00 9.43 -0.29
310.00 288.00 0.00 9.40 -0.29
311.00 288.00 0.00 9.36 -0.29
312.00 288.00 0.00 9.33 -0.28
313.00 288.00 0.00 9.29 -0.28
314.00 288.00 0.00 9.26 -0.27
315.00 288.00 0.00 9.22 -0.27
316.00 288.00 0.00 9.19 -0.27
317.00 288.00 0.00 9.15 -0.26
318.00 288.00 0.00 9.12 -0.26
319.00 288.00 0.00 9.08 -0.25
320.00 288.00 0.00 9.05 -0.25
321.00 288.00 0.00 9.01 -0.24
322.00 288.00 0.00 8.98 -0.24
323.00 288.00 0.00 8.94 -0.24
324.00 288.00 0.00 8.91 -0.23
325.00 288.00 0.00 8.87 -0.23
326.00 288.00 0.00 8.84 -0.22
327.00 288.00 0.00 8.80 -0.22
328.00 288.00 0.00 8.77 -0.21
329.00 288.00 0.00 8.73 -0.21
330.00 288.00 0.00 8.70 -0.21
331.00 288.00 0.00 8.66 -0.20
332.00 288.00 0.00 8.63 -0.20
333.00 288.00 0.00 8.59 -0.19
334.00 288.00 0.00 8.56 -0.19
335.00 288.00 0.00 8.52 -0.18
336.00 288.00 0.00 8.49 -0.18
337.00 288.00 0.00 8.45 -0.18
338.00 288.00 0.00 8.42 -0.17
339.00 288.00 0.00 8.38 -0.17
340.00 288.00 0.00 8.35 -0.16
341.00 288.00 0.00 8.31 -0.16
342.00 288.00 0.00 8.28 -0.15
343.00 288.00 0.00 8.24 -0.15
344.00 288.00 0.00 8.21 -0.15
345.00 288.00 0.00 8.17 -0.14
346.00 288.00 0.00 8.14 -0.14
347.00 288.00 0.00 8.10 -0.13
348.00 288.00 0.00 8.07 -0.13
349.00 288.00 0.00 8.03 -0.12
350.00 288.00 0.00 8.00 -0.12
351.00 288.00 0.00 7.96 -0.12
352.00 288.00 0.00 7.93 -0.11
353.00 288.00 0.00 7.89 -0.11
354.00 288.00 0.00 7.86 -0.10
355.00 288.00 0.00 7.82 -0.10
356.00 288.00 0.00 7.79 -0.09
357.00 288.00 0.00 7.75 -0.09
358.00 288.00 0.00 7.72 -0.09
359.00 288.00 0.00 7.68 -0.08
360.00 288.00 0.00 7.65 -0.08
361.00 288.00 0.00 7.61 -0.07
362.00 288.00 0.00 7.58 -0.07
363.00 288.00 0.00 7.54 -0.06
364.00 288.00 0.00 7.51 -0.06
365.00 288.00 0.00 7.47 -0.06
366.00 288.00 0.00 7.44 -0.05
367.00 288.00 0.00 7.40 -0.05
368.00 288.00 0.00 7.37 -0.04
369.00 288.00 0.00 7.33 -0.04
370.00 288.00 0.00 7.30 -0.03
371.00 288.00 0.00 7.26 -0.03
372.00 288.00 0.00 7.23 -0.03
373.00 288.00 0.00 7.19 -0.02
374.00 288.00 0.00 7.16 -0.02
375.00 288.00 0.00 7.12 -0.01
376.00 288.00 0.00 7.09 -0.01
377.00 288.00 0.00 7.05 -0.00
378.00 288.00 0.00 7.02 0.00
379.00 288.00 0.00 6.98 0.00
380.00 288.00 0.00 6.95 0.01
381.00 288.00 0.00 6.91 0.01
382.00 288.00 0.00 6.88 0.02
383.00 288.00 0.00 6.84 0.02
384.00 288.00 0.00 6.81 0.03
385.00 288.00 0.00 6.77 0.03
386.00 288.00 0.00 6.74 0.03
387.00 288.00 0.00 6.70 0.04
388.00 288.00 0.00 6.67 0.04
389.00 288.00 0.00 6.63 0.05
390.00 288.00 0.00 6.60 0.05
391.00 288.00 0.00 6.56 0.06
392.00 288.00 0.00 6.53 0.06
393.00 288.00 0.00 6.49 0.06
394.00 288.00 0.00 6.46 0.07
395.00 288.00 0.00 6.42 0.07
396.00 288.00 0.00 6.39 0.08
397.00 288.00 0.00 6.35 0.08
398.00 288.00 0.00 6.32 0.09
399.00 288.00 0.00 6.28 0.09
400.00 288.00 0.00 6.25 0.09
401.00 288.00 0.00 6.21 0.10
402.00 288.00 0.00 6.18 0.10
403.00 288.00 0.00 6.14 0.11
404.00 288.00 0.00 6.11 0.11
405.00 288.00 0.00 6.07 0.12
406.00 288.00 0.00 6.04 0.12
407.00 288.00 0.00 6.00 0.12
408.00 288.00 0.00 5.97 0.13
409.00 288.00 0.00 5.93 0.13
410.00 288.00 0.00 5.90 0.14
411.00 288.00 0.00 5.86 0.14
412.00 288.00 0.00 5.83 0.15
413.00 288.00 0.00 5.79 0.15
414.00 288.00 0.00 5.76 0.15
415.00 288.00 0.00 5.72 0.16
416.00 288.00 0.00 5.69 0.16
417.00 288.00 0.00 5.65 0.17
418.00 288.00 0.00 5.62 0.17
419.00 288.00 0.00 5.58 0.18
420.00 288.00 0.00 5.55 0.18
421.00 288.00 0.00 5.51 0.18
422.00 288.00 0.00 5.48 0.19
423.00 288.00 0.00 5.44 0.19
424.00 288.00 0.00 5.41 0.20
425.00 288.00 0.00 5.37 0.20
426.00 288.00 0.00 5.34 0.21
427.00 288.00 0.00 5.30 0.21
428.00 288.00 0.00 5.27 0.21
429.00 288.00 0.00 5.23 0.22
430.00 288.00 0.00 5.20 0.22
431.00 288.00 0.00 5.16 0.23
432.00 288.00 0.00 5.13 0.23
433.00 288.00 0.00 5.09 0.24
434.00 288.00 0.00 5.06 0.24
435.00 288.00 0.00 5.02 0.24
436.00 288.00 0.00 4.99 0.25
437.00 288.00 0.00 4.95 0.25
438.00 288.00 0.00 4.92 0.26
439.00 288.00 0.00 4.88 0.26
440.00 288.00 0.00 4.85 0.27
441.00 288.00 0.00 4.81 0.27
442.00 288.00 0.00 4.78 0.27
443.00 288.00 0.00 4.74 0.28
444.00 288.00 0.00 4.71 0.28
445.00 288.00 0.00 4.67 0.29
446.00 288.00 0.00 4.64 0.29
447.00 288.00 0.00 4.60 0.29
448.00 288.00 0.00 4.57 0.30
449.00 288.00 0.00 4.53 0.30
450.00 288.00 0.00 4.50 0.31
451.00 288.00 0.00 4.46 0.31
452.00 288.00 0.00 4.43 0.32
453.00 288.00 0.00 4.39 0.32
454.00 288.00 0.00 4.36 0.32
455.00 288.00 0.00 4.32 0.33
456.00 288.00 0.00 4.29 0.33
457.00 288.00 0.00 4.25 0.34
458.00 288.00 0.00 4.22 0.34
459.00 288.00 0.00 4.18 0.35
460.00 288.00 0.00 4.15 0.35
461.00 288.00 0.00 4.11 0.35
462.00 288.00 0.00 4.08 0.36
463.00 288.00 0.00 4.04 0.36
464.00 288.00 0.00 4.01 0.37
465.00 288.00 0.00 3.97 0.37
466.00 288.00 0.00 3.94 0.38
467.00 288.00 0.00 3.90 0.38
468.00 288.00 0.00 3.87 0.38
469.00 288.00 0.00 3.84 0.39
470.00 288.00 0.00 3.80 0.39
471.00 288.00 0.00 3.77 0.40
472.00 288.00 0.00 3.74 0.40
473.00 288.00 0.00 3.70 0.40
474.00 288.00 0.00 3.67 0.41
475.00 288.00 0.00 3.64 0.41
476.00 288.00 0.00 3.60 0.42
477.00 288.00 0.00 3.57 0.42
478.00 288.00 0.00 3.54 0.42
479.00 288.00 0.00 3.51 0.43
480.00 288.00 0.00 3.48 0.43
481.00 288.00 0.00 3.45 0.44
482.00 288.00 0.00 3.41 0.44
483.00 288.00 0.00 3.38 0.44
484.00 288.00 0.00 3.35 0.45
485.00 288.00 0.00 3.32 0.45
486.00 288.00 0.00 3.29 0.45
487.00 288.00 0.00 3.26 0.46
488.00 288.00 0.00 3.23 0.46
489.00 288.00 0.00 3.20 0.47
490.00 288.00 0.00 3.17 0.47
491.00 288.00 0.00 3.14 0.47
492.00 288.00 0.00 3.11 0.48
493.00 288.00 0.00 3.08 0.48
494.00 288.00 0.00 3.05 0.48
495.00 288.00 0.00 3.02 0.49
496.00 288.00 0.00 3.00 0.49
497.00 288.00 0.00 2.97 0.49
498.00 288.00 0.00 2.94 0.50
499.00 288.00 0.00 2.91 0.50
500.00 288.00 0.00 2.88 0.50
501.00 288.00 0.00 2.86 0.51
502.00 288.00 0.00 2.83 0.51
503.00 288.00 0.00 2.80 0.51
504.00 288.00 0.00 2.77 0.52
505.00 288.00 0.00 2.75 0.52
506.00 288.00 0.00 2.72 0.52
507.00 288.00 0.00 2.69 0.53
508.00 288.00 0.00 2.67 0.53
509.00 288.00 0.00 2.64 0.53
510.00 288.00 0.00 2.62 0.54
511.00 288.00 0.00 2.59 0.54
512.00 288.00 0.00 2.56 0.54
513.00 288.00 0.00 2.54 0.55
514.00 288.00 0.00 2.51 0.55
515.00 288.00 0.00 2.49 0.55
516.00 288.00 0.00 2.46 0.56
517.00 288.00 0.00 2.44 0.56
518.00 288.00 0.00 2.42 0.56
519.00 288.00 0.00 2.39 0.56
520.00 288.00 0.00 2.37 0.57
521.00 288.00 0.00 2.34 0.57
522.00 288.00 0.00 2.32 0.57
523.00 288.00 0.00 2.30 0.58
524.00 288.00 0.00 2.27 0.58
525.00 288.00 0.00 2.25 0.58
526.00 288.00 0.00 2.23 0.58
527.00 288.00 0.00 2.20 0.59
528.00 288.00 0.00 2.18 0.59
529.00 288.00 0.00 2.16 0.59
530.00 288.00 0.00 2.14 0.59
531.00 288.00 0.00 2.12 0.60
532.00 288.00 0.00 2.09 0.60
533.00 288.00 0.00 2.07 0.60
534.00 288.00 0.00 2.05 0.61
535.00 288.00 0.00 2.03 0.61
536.00 288.00 0.00 2.01 0.61
537.00 288.00 0.00 1.99 0.61
538.00 288.00 0.00 1.97 0.62
539.00 288.00 0.00 1.95 0.62
540.00 288.00 0.00 1.93 0.62
541.00 288.00 0.00 1.91 0.62
542.00 288.00 0.00 1.89 0.62
543.00 288.00 0.00 1.87 0.63
544.00 288.00 0.00 1.85 0.63
545.00 288.00 0.00 1.83 0.63
546.00 288.00 0.00 1.81 0.63
547.00 288.00 0.00 1.79 0.64
548.00 288.00 0.00 1.78 0.64
549.00 288.00 0.00 1.76 0.64
550.00 288.00 0.00 1.74 0.64
551.00 288.00 0.00 1.72 0.65
552.00 288.00 0.00 1.70 0.65
553.00 288.00 0.00 1.69 0.65
554.00 288.00 0.00 1.67 0.65
555.00 288.00 0.00 1.65 0.65
556.00 288.00 0.00 1.63 0.66
557.00 288.00 0.00 1.62 0.66
558.00 288.00 0.00 1.60 0.66
559.00 288.00 0.00 1.58 0.66
560.00 288.00 0.00 1.57 0.66
561.00 288.00 0.00 1.55 0.67
562.00 288.00 0.00 1.54 0.67
563.00 288.00 0.00 1.52 0.67
564.00 288.00 0.00 1.51 0.67
565.00 288.00 0.00 1.49 0.67
566.00 288.00 0.00 1.48 0.67
567.00 288.00 0.00 1.46 0.68
568.00 288.00 0.00 1.45 0.68
569.00 288.00 0.00 1.43 0.68
570.00 288.00 0.00 1.42 0.68
571.00 288.00 0.00 1.40 0.68
572.00 288.00 0.00 1.39 0.69
573.00 288.00 0.00 1.38 0.69
574.00 288.00 0.00 1.36 0.69
575.00 288.00 0.00 1.35 0.69
576.00 288.00 0.00 1.34 0.69
577.00 288.00 0.00 1.32 0.69
578.00 288.00 0.00 1.31 0.69
579.00 288.00 0.00 1.30 0.70
580.00 288.00 0.00 1.29 0.70
581.00 288.00 0.00 1.27 0.70
582.00 288.00 0.00 1.26 0.70
583.00 288.00 0.00 1.25 0.70
584.00 288.00 0.00 1.24 0.70
585.00 288.00 0.00 1.23 0.70
586.00 288.00 0.00 1.22 0.71
587.00 288.00 0.00 1.21 0.71
588.00 288.00 0.00 1.20 0.71
589.00 288.00 0.00 1.18 0.71
590.00 288.00 0.00 1.17 0.71
591.00 288.00 0.00 1.16 0.71
592.00 288.00 0.00 1.15 0.71
593.00 288.00 0.00 1.14 0.71
594.00 288.00 0.00 1.14 0.72
595.00 288.00 0.00 1.13 0.72
596.00 288.00 0.00 1.12 0.72
597.00 288.00 0.00 1.11 0.72
598.00 288.00 0.00 1.10 0.72
599.00 288.00 0.00 1.09 0.72
600.00 288.00 0.00 1.08 0.72
601.00 288.00 0.00 1.07 0.72
602.00 288.00 0.00 1.07 0.72
603.00 288.00 0.00 1.06 0.73
604.00 288.00 0.00 1.05 0.73
605.00 288.00 0.00 1.04 0.73
606.00 288.00 0.00 1.04 0.73
607.00 288.00 0.00 1.03 0.73
608.00 288.00 0.00 1.02 0.73
609.00 288.00 0.00 1.02 0.73
610.00 288.00 0.00 1.01 0.73
611.00 288.00 0.00 1.00 0.73
612.00 288.00 0.00 1.00 0.73
613.00 288.00 0.00 0.99 0.73
614.00 288.00 0.00 0.99 0.73
615.00 288.00 0.00 0.98 0.73
616.00 288.00 0.00 0.97 0.74
617.00 288.00 0.00 0.97 0.74
618.00 288.00 0.00 0.96 0.74
619.00 288.00 0.00 0.96 0.74
620.00 288.00 0.00 0.96 0.74
621.00 288.00 0.00 0.95 0.74
622.00 288.00 0.00 0.95 0.74
623.00 288.00 0.00 0.94 0.74
624.00 288.00 0.00 0.94 0.74
625.00 288.00 0.00 0.94 0.74
626.00 288.00 0.00 0.93 0.74
627.00 288.00 0.00 0.93 0.74
628.00 288.00 0.00 0.93 0.74
629.00 288.00 0.00 0.92 0.74
630.00 288.00 0.00 0.92 0.74
631.00 288.00 0.00 0.92 0.74
632.00 288.00 0.00 0.92 0.74
633.00 288.00 0.00 0.91 0.74
634.00 288.00 0.00 0.91 0.74
635.00 288.00 0.00 0.91 0.74
636.00 288.00 0.00 0.91 0.74
637.00 288.00 0.00 0.91 0.74
638.00 288.00 0.00 0.91 0.74
639.00 288.00 0.00 0.91 0.74
640.00 288.00 0.00 0.91 0.74
641.00 288.00 0.00 0.91 0.74
642.00 288.00 0.00 0.91 0.74
643.00 288.00 0.00 0.91 0.74
644.00 288.00 0.00 0.91 0.74
645.00 288.00 0.00 0.91 0.74
646.00 288.00 0.00 0.91 0.74
647.00 288.00 0.00 0.91 0.74
648.00 288.00 0.00 0.91 0.74
649.00 288.00 0.00 0.91 0.74
650.00 288.00 0.00 0.91 0.74
651.00 288.00 0.00 0.91 0.74
652.00 288.00 0.00 0.91 0.74
653.00 288.00 0.00 0.91 0.74
654.00 288.00 0.00 0.91 0.74
655.00 288.00 0.00 0.91 0.74
656.00 288.00 0.00 0.91 0.74
657.00 288.00 0.00 0.91 0.74
658.00 288.00 0.00 0.91 0.74
659.00 288.00 0.00 0.91 0.74
660.00 288.00 0.00 0.91 0.74
661.00 288.00 0.00 0.91 0.74
662.00 288.00 0.00 0.91 0.74
663.00 288.00 0.00 0.91 0.74
664.00 288.00 0.00 0.91 0.74
665.00 288.00 0.00 0.91 0.74
666.00 288.00 0.00 0.91 0.74
667.00 288.00 0.00 0.91 0.74
668.00 288.00 0.00 0.91 0.74
669.00 288.00 0.00 0.91 0.74
670.00 288.00 0.00 0.91 0.74
671.00 288.00 0.00 0.91 0.74
672.00 288.00 0.00 0.91 0.74
673.00 288.00 0.00 0.91 0.74
674.00 288.00 0.00 0.91 0.74
675.00 288.00 0.00 0.91 0.74
676.00 288.00 0.00 0.91 0.74
677.00 288.00 0.00 0.91 0.74
678.00 288.00 0.00 0.91 0.74
679.00 288.00 0.00 0.91 0.74
680.00 288.00 0.00 0.91 0.74
681.00 288.00 0.00 0.91 0.74
682.00 288.00 0.00 0.91 0.74
683.00 288.00 0.00 0.91 0.74
684.00 288.00 0.00 0.91 0.74
685.00 288.00 0.00 0.91 0.74
686.00 288.00 0.00 0.91 0.74
687.00 288.00 0.00 0.91 0.74
688.00 288.00 0.00 0.91 0.74
689.00 288.00 0.00 0.91 0.74
690.00 288.00 0.00 0.91 0.74
691.00 288.00 0.00 0.91 0.74
692.00 288.00 0.00 0.91 0.74
693.00 288.00 0.00 0.91 0.74
694.00 288.00 0.00 0.91 0.74
695.00 288.00 0.00 0.91 0.74
696.00 288.00 0.00 0.91 0.74
697.00 288.00 0.00 0.91 0.74
698.00 288.00 0.00 0.91 0.74
699.00 288.00 0.00 0.91 0.74
700.00 288.00 0.00 0.91 0.74
701.00 288.00 0.00 0.91 0.74
702.00 288.00 0.00 0.91 0.74
703.00 288.00 0.00 0.91 0.74
704.00 288.00 0.00 0.91 0.74
705.00 288.00 0.00 0.91 0.74
706.00 288.00 0.00 0.91 0.74
707.00 288.00 0.00 0.91 0.74
708.00 288.00 0.00 0.91 0.74
709.00 288.00 0.00 0.91 0.74
710.00 288.00 0.00 0.91 0.74
711.00 288.00 0.00 0.91 0.74
712.00 288.00 0.00 0.91 0.74
713.00 288.00 0.00 0.91 0.74
714.00 288.00 0.00 0.91 0.74
715.00 288.00 0.00 0.91 0.74
716.00 288.00 0.00 0.91 0.74
717.00 288.00 0.00 0.91 0.74
718.00 288.00 0.00 0.91 0.74
719.00 288.00 0.00 0.91 0.74
720.00 288.00 0.00 0.91 0.74
721.00 288.00 0.00 0.91 0.74
722.00 288.00 0.00 0.91 0.74
723.00 288.00 0.00 0.91 0.74
724.00 288.00 0.00 0.91 0.74
725.00 288.00 0.00 0.91 0.74
726.00 288.00 0.00 0.91 0.74
727.00 288.00 0.00 0.91 0.74
728.00 288.00 0.00 0.91 0.74
729.00 288.00 0.00 0.91 0.74
730.00 288.00 0.00 0.91 0.74
731.00 288.00 0.00 0.91 0.74
732.00 288.00 0.00 0.91 0.74
733.00 288.00 0.00 0.91 0.74
734.00 288.00 0.00 0.91 0.74
735.00 288.00 0.00 0.91 0.74
736.00 288.00 0.00 0.91 0.74
737.00 288.00 0.00 0.91 0.74
738.00 288.00 0.00 0.91 0.74
739.00 288.00 0.00 0.91 0.74
740.00 288.00 0.00 0.91 0.74
741.00 288.00 0.00 0.91 0.74
742.00 288.00 0.00 0.91 0.74
743.00 288.00 0.00 0.91 0.74
744.00 288.00 0.00 0.91 0.74
745.00 288.00 0.00 0.91 0.74
746.00 288.00 0.00 0.91 0.74
747.00 288.00 0.00 0.91 0.74
748.00 288.00 0.00 0.91 0.74
749.00 288.00 0.00 0.91 0.74
750.00 288.00 0.00 0.91 0.74
751.00 288.00 0.00 0.91 0.74
752.00 288.00 0.00 0.91 0.74
753.00 288.00 0.00 0.91 0.74
754.00 288.00 0.00 0.91 0.74
755.00 288.00 0.00 0.91 0.74
756.00 288.00 0.00 0.91 0.74
757.00 288.00 0.00 0.91 0.74
758.00 288.00 0.00 0.91 0.74
759.00 288.00 0.00 0.91 0.74
760.00 288.00 0.00 0.91 0.74
761.00 288.00 0.00 0.91 0.74
762.00 288.00 0.00 0.91 0.74
763.00 288.00 0.00 0.91 0.74
764.00 288.00 0.00 0.91 0.74
765.00 288.00 0.00 0.91 0.74
766.00 288.00 0.00 0.91 0.74
767.00 288.00 0.00 0.91 0.74
768.00 288.00 0.00 0.91 0.74
769.00 288.00 0.00 0.91 0.74
770.00 288.00 0.00 0.91 0.74
771.00 288.00 0.00 0.91 0.74
772.00 288.00 0.00 0.91 0.74
773.00 288.00 0.00 0.91 0.74
774.00 288.00 0.00 0.91 0.74
775.00 288.00 0.00 0.91 0.74
776.00 288.00 0.00 0.91 0.74
777.00 288.00 0.00 0.91 0.74
778.00 288.00 0.00 0.91 0.74
779.00 288.00 0.00 0.91 0.74
780.00 288.00 0.00 0.91 0.74
781.00 288.00 0.00 0.91 0.74
782.00 288.00 0.00 0.91 0.74
783.00 288.00 0.00 0.91 0.74
784.00 288.00 0.00 0.91 0.74
785.00 288.00 0.00 0.91 0.74
786.00 288.00 0.00 0.91 0.74
787.00 288.00 0.00 0.91 0.74
788.00 288.00 0.00 0.91 0.74
789.00 288.00 0.00 0.91 0.74
790.00 288.00 0.00 0.91 0.74
791.00 288.00 0.00 0.91 0.74
792.00 288.00 0.00 0.91 0.74
793.00 288.00 0.00 0.91 0.74
794.00 288.00 0.00 0.91 0.74
795.00 288.00 0.00 0.91 0.74
796.00 288.00 0.00 0.91 0.74
797.00 288.00 0.00 0.91 0.74
798.00 288.00 0.00 0.91 0.74
799.00 288.00 0.00 0.91 0.74
800.00 288.00 0.00 0.91 0.74
801.00 288.00 0.00 0.91 0.74
802.00 288.00 0.00 0.91 0.74
803.00 288.00 0.00 0.91 0.74
804.00 288.00 0.00 0.91 0.74
805.00 288.00 0.00 0.91 0.74
806.00 288.00 0.00 0.91 0.74
807.00 288.00 0.00 0.91 0.74
808.00 288.00 0.00 0.91 0.74
809.00 288.00 0.00 0.91 0.74
810.00 288.00 0.00 0.91 0.74
811.00 288.00 0.00 0.91 0.74
812.00 288.00 0.00 0.91 0.74
813.00 288.00 0.00 0.91 0.74
814.00 288.00 0.00 0.91 0.74
815.00 288.00 0.00 0.91 0.74
816.00 288.00 0.00 0.91 0.74
817.00 288.00 0.00 0.91 0.74
818.00 288.00 0.00 0.91 0.74
819.00 288.00 0.00 0.91 0.74
820.00 288.00 0.00 0.91 0.74
821.00 288.00 0.00 0.91 0.74
822.00 288.00 0.00 0.91 0.74
823.00 288.00 0.00 0.91 0.74
824.00 288.00 0.00 0.91 0.74
825.00 288.00 0.00 0.91 0.74
826.00 288.00 0.00 0.91 0.74
827.00 288.00 0.00 0.91 0.74
828.00 288.00 0.00 0.91 0.74
829.00 288.00 0.00 0.91 0.74
830.00 288.00 0.00 0.91 0.74
831.00 288.00 0.00 0.91 0.74
