1000.00 288.00 00.00
0.00 288.00 0.00 0.65 1.29
1.00 288.00 0.00 0.65 1.29
2.00 288.00 0.00 0.65 1.29
3.00 288.00 0.00 0.65 1.29
4.00 288.00 0.00 0.65 1.29
5.00 288.00 0.00 0.65 1.29
6.00 288.00 0.00 0.65 1.29
7.00 288.00 0.00 0.65 1.29
8.00 288.00 0.00 0.65 1.29
9.00 288.00 0.00 0.65 1.29
10.00 288.00 0.00 0.65 1.29
11.00 288.00 0.00 0.65 1.29
12.00 288.00 0.00 0.65 1.29
13.00 288.00 0.00 0.65 1.29
14.00 288.00 0.00 0.65 1.29
15.00 288.00 0.00 0.65 1.29
16.00 288.00 0.00 0.65 1.29
17.00 288.00 0.00 0.65 1.29
18.00 288.00 0.00 0.65 1.29
19.00 288.00 0.00 0.65 1.29
20.00 288.00 0.00 0.65 1.29
21.00 288.00 0.00 0.65 1.29
22.00 288.00 0.00 0.65 1.29
23.00 288.00 0.00 0.65 1.29
24.00 288.00 0.00 0.65 1.29
25.00 288.00 0.00 0.65 1.29
26.00 288.00 0.00 0.65 1.29
27.00 288.00 0.00 0.65 1.29
28.00 288.00 0.00 0.65 1.29
29.00 288.00 0.00 0.65 1.29
30.00 288.00 0.00 0.65 1.29
31.00 288.00 0.00 0.65 1.29
32.00 288.00 0.00 0.65 1.29
33.00 288.00 0.00 0.65 1.29
34.00 288.00 0.00 0.65 1.29
35.00 288.00 0.00 0.65 1.29
36.00 288.00 0.00 0.65 1.29
37.00 288.00 0.00 0.65 1.29
38.00 288.00 0.00 0.65 1.29
39.00 288.00 0.00 0.65 1.29
40.00 288.00 0.00 0.65 1.29
41.00 288.00 0.00 0.65 1.29
42.00 288.00 0.00 0.65 1.29
43.00 288.00 0.00 0.65 1.29
44.00 288.00 0.00 0.65 1.29
45.00 288.00 0.00 0.65 1.29
46.00 288.00 0.00 0.65 1.29
47.00 288.00 0.00 0.65 1.29
48.00 288.00 0.00 0.65 1.29
49.00 288.00 0.00 0.65 1.29
50.00 288.00 0.00 0.65 1.29
51.00 288.00 0.00 0.65 1.29
52.00 288.00 0.00 0.65 1.29
53.00 288.00 0.00 0.65 1.29
54.00 288.00 0.00 0.65 1.29
55.00 288.00 0.00 0.65 1.29
56.00 288.00 0.00 0.65 1.29
57.00 288.00 0.00 0.65 1.29
58.00 288.00 0.00 0.65 1.29
59.00 288.00 0.00 0.65 1.29
60.00 288.00 0.00 0.65 1.29
61.00 288.00 0.00 0.65 1.29
62.00 288.00 0.00 0.65 1.29
63.00 288.00 0.00 0.65 1.29
64.00 288.00 0.00 0.65 1.29
65.00 288.00 0.00 0.65 1.29
66.00 288.00 0.00 0.65 1.29
67.00 288.00 0.00 0.65 1.29
68.00 288.00 0.00 0.65 1.29
69.00 288.00 0.00 0.65 1.29
70.00 288.00 0.00 0.65 1.29
71.00 288.00 0.00 0.65 1.29
72.00 288.00 0.00 0.65 1.29
73.00 288.00 0.00 0.65 1.29
74.00 288.00 0.00 0.65 1.29
75.00 288.00 0.00 0.65 1.29
76.00 288.00 0.00 0.65 1.29
77.00 288.00 0.00 0.65 1.29
78.00 288.00 0.00 0.65 1.29
79.00 288.00 0.00 0.65 1.29
80.00 288.00 0.00 0.65 1.29
81.00 288.00 0.00 0.65 1.29
82.00 288.00 0.00 0.65 1.29
83.00 288.00 0.00 0.65 1.29
84.00 288.00 0.00 0.65 1.29
85.00 288.00 0.00 0.65 1.28
86.00 288.00 0.00 0.65 1.28
87.00 288.00 0.00 0.66 1.28
88.00 288.00 0.00 0.66 1.28
89.00 288.00 0.00 0.66 1.28
90.00 288.00 0.00 0.66 1.28
91.00 288.00 0.00 0.66 1.28
92.00 288.00 0.00 0.67 1.28
93.00 288.00 0.00 0.67 1.28
94.00 288.00 0.00 0.67 1.28
95.00 288.00 0.00 0.68 1.28
96.00 288.00 0.00 0.68 1.28
97.00 288.00 0.00 0.68 1.28
98.00 288.00 0.00 0.69 1.28
99.00 288.00 0.00 0.69 1.28
100.00 288.00 0.00 0.69 1.28
101.00 288.00 0.00 0.70 1.28
102.00 288.00 0.00 0.70 1.28
103.00 288.00 0.00 0.70 1.27
104.00 288.00 0.00 0.71 1.27
105.00 288.00 0.00 0.71 1.27
106.00 288.00 0.00 0.72 1.27
107.00 288.00 0.00 0.72 1.27
108.00 288.00 0.00 0.73 1.27
109.00 288.00 0.00 0.73 1.27
110.00 288.00 0.00 0.74 1.27
111.00 288.00 0.00 0.75 1.27
112.00 288.00 0.00 0.75 1.26
113.00 288.00 0.00 0.76 1.26
114.00 288.00 0.00 0.76 1.26
115.00 288.00 0.00 0.77 1.26
116.00 288.00 0.00 0.78 1.26
117.00 288.00 0.00 0.78 1.26
118.00 288.00 0.00 0.79 1.26
119.00 288.00 0.00 0.80 1.26
120.00 288.00 0.00 0.80 1.25
121.00 288.00 0.00 0.81 1.25
122.00 288.00 0.00 0.82 1.25
123.00 288.00 0.00 0.83 1.25
124.00 288.00 0.00 0.83 1.25
125.00 288.00 0.00 0.84 1.25
126.00 288.00 0.00 0.85 1.24
127.00 288.00 0.00 0.86 1.24
128.00 288.00 0.00 0.87 1.24
129.00 288.00 0.00 0.87 1.24
130.00 288.00 0.00 0.88 1.24
131.00 288.00 0.00 0.89 1.24
132.00 288.00 0.00 0.90 1.23
133.00 288.00 0.00 0.91 1.23
134.00 288.00 0.00 0.92 1.23
135.00 288.00 0.00 0.93 1.23
136.00 288.00 0.00 0.94 1.23
137.00 288.00 0.00 0.95 1.22
138.00 288.00 0.00 0.96 1.22
139.00 288.00 0.00 0.97 1.22
140.00 288.00 0.00 0.98 1.22
141.00 288.00 0.00 0.99 1.22
142.00 288.00 0.00 1.00 1.21
143.00 288.00 0.00 1.01 1.21
144.00 288.00 0.00 1.02 1.21
145.00 288.00 0.00 1.04 1.21
146.00 288.00 0.00 1.05 1.21
147.00 288.00 0.00 1.06 1.20
148.00 288.00 0.00 1.07 1.20
149.00 288.00 0.00 1.08 1.20
150.00 288.00 0.00 1.09 1.20
151.00 288.00 0.00 1.11 1.19
152.00 288.00 0.00 1.12 1.19
153.00 288.00 0.00 1.13 1.19
154.00 288.00 0.00 1.14 1.19
155.00 288.00 0.00 1.16 1.18
156.00 288.00 0.00 1.17 1.18
157.00 288.00 0.00 1.18 1.18
158.00 288.00 0.00 1.20 1.17
159.00 288.00 0.00 1.21 1.17
160.00 288.00 0.00 1.22 1.17
161.00 288.00 0.00 1.24 1.17
162.00 288.00 0.00 1.25 1.16
163.00 288.00 0.00 1.27 1.16
164.00 288.00 0.00 1.28 1.16
165.00 288.00 0.00 1.30 1.15
166.00 288.00 0.00 1.31 1.15
167.00 288.00 0.00 1.33 1.15
168.00 288.00 0.00 1.34 1.15
169.00 288.00 0.00 1.36 1.14
170.00 288.00 0.00 1.37 1.14
171.00 288.00 0.00 1.39 1.14
172.00 288.00 0.00 1.40 1.13
173.00 288.00 0.00 1.42 1.13
174.00 288.00 0.00 1.44 1.13
175.00 288.00 0.00 1.45 1.12
176.00 288.00 0.00 1.47 1.12
177.00 288.00 0.00 1.48 1.12
178.00 288.00 0.00 1.50 1.11
179.00 288.00 0.00 1.52 1.11
180.00 288.00 0.00 1.54 1.11
181.00 288.00 0.00 1.55 1.10
182.00 288.00 0.00 1.57 1.10
183.00 288.00 0.00 1.59 1.10
184.00 288.00 0.00 1.61 1.09
185.00 288.00 0.00 1.62 1.09
186.00 288.00 0.00 1.64 1.08
187.00 288.00 0.00 1.66 1.08
188.00 288.00 0.00 1.68 1.08
189.00 288.00 0.00 1.70 1.07
190.00 288.00 0.00 1.72 1.07
191.00 288.00 0.00 1.73 1.07
192.00 288.00 0.00 1.75 1.06
193.00 288.00 0.00 1.77 1.06
194.00 288.00 0.00 1.79 1.05
195.00 288.00 0.00 1.81 1.05
196.00 288.00 0.00 1.83 1.05
197.00 288.00 0.00 1.85 1.04
198.00 288.00 0.00 1.87 1.04
199.00 288.00 0.00 1.89 1.03
200.00 288.00 0.00 1.91 1.03
201.00 288.00 0.00 1.93 1.03
202.00 288.00 0.00 1.95 1.02
203.00 288.00 0.00 1.98 1.02
204.00 288.00 0.00 2.00 1.01
205.00 288.00 0.00 2.02 1.01
206.00 288.00 0.00 2.04 1.00
207.00 288.00 0.00 2.06 1.00
208.00 288.00 0.00 2.08 1.00
209.00 288.00 0.00 2.10 0.99
210.00 288.00 0.00 2.13 0.99
211.00 288.00 0.00 2.15 0.98
212.00 288.00 0.00 2.17 0.98
213.00 288.00 0.00 2.19 0.97
214.00 288.00 0.00 2.22 0.97
215.00 288.00 0.00 2.24 0.96
216.00 288.00 0.00 2.26 0.96
217.00 288.00 0.00 2.29 0.95
218.00 288.00 0.00 2.31 0.95
219.00 288.00 0.00 2.33 0.94
220.00 288.00 0.00 2.36 0.94
221.00 288.00 0.00 2.38 0.94
222.00 288.00 0.00 2.41 0.93
223.00 288.00 0.00 2.43 0.93
224.00 288.00 0.00 2.45 0.92
225.00 288.00 0.00 2.48 0.92
226.00 288.00 0.00 2.50 0.91
227.00 288.00 0.00 2.53 0.91
228.00 288.00 0.00 2.55 0.90
229.00 288.00 0.00 2.58 0.90
230.00 288.00 0.00 2.60 0.89
231.00 288.00 0.00 2.63 0.88
232.00 288.00 0.00 2.66 0.88
233.00 288.00 0.00 2.68 0.87
234.00 288.00 0.00 2.71 0.87
235.00 288.00 0.00 2.73 0.86
236.00 288.00 0.00 2.76 0.86
237.00 288.00 0.00 2.79 0.85
238.00 288.00 0.00 2.81 0.85
239.00 288.00 0.00 2.84 0.84
240.00 288.00 0.00 2.87 0.84
241.00 288.00 0.00 2.90 0.83
242.00 288.00 0.00 2.92 0.83
243.00 288.00 0.00 2.95 0.82
244.00 288.00 0.00 2.98 0.81
245.00 288.00 0.00 3.01 0.81
246.00 288.00 0.00 3.03 0.80
247.00 288.00 0.00 3.06 0.80
248.00 288.00 0.00 3.09 0.79
249.00 288.00 0.00 3.12 0.79
250.00 288.00 0.00 3.15 0.78
251.00 288.00 0.00 3.18 0.77
252.00 288.00 0.00 3.21 0.77
253.00 288.00 0.00 3.24 0.76
254.00 288.00 0.00 3.27 0.76
255.00 288.00 0.00 3.30 0.75
256.00 288.00 0.00 3.33 0.74
257.00 288.00 0.00 3.36 0.74
258.00 288.00 0.00 3.39 0.73
259.00 288.00 0.00 3.42 0.73
260.00 288.00 0.00 3.45 0.72
261.00 288.00 0.00 3.48 0.71
262.00 288.00 0.00 3.51 0.71
263.00 288.00 0.00 3.54 0.70
264.00 288.00 0.00 3.56 0.70
265.00 288.00 0.00 3.59 0.69
266.00 288.00 0.00 3.63 0.68
267.00 288.00 0.00 3.66 0.68
268.00 288.00 0.00 3.69 0.67
269.00 288.00 0.00 3.72 0.66
270.00 288.00 0.00 3.75 0.66
271.00 288.00 0.00 3.78 0.65
272.00 288.00 0.00 3.81 0.65
273.00 288.00 0.00 3.83 0.64
274.00 288.00 0.00 3.87 0.63
275.00 288.00 0.00 3.90 0.63
276.00 288.00 0.00 3.92 0.62
277.00 288.00 0.00 3.96 0.62
278.00 288.00 0.00 3.99 0.61
279.00 288.00 0.00 4.02 0.60
280.00 288.00 0.00 4.04 0.60
281.00 288.00 0.00 4.08 0.59
282.00 288.00 0.00 4.11 0.59
283.00 288.00 0.00 4.14 0.58
284.00 288.00 0.00 4.17 0.57
285.00 288.00 0.00 4.20 0.57
286.00 288.00 0.00 4.23 0.56
287.00 288.00 0.00 4.26 0.56
288.00 288.00 0.00 4.29 0.55
289.00 288.00 0.00 4.32 0.54
290.00 288.00 0.00 4.35 0.54
291.00 288.00 0.00 4.38 0.53
292.00 288.00 0.00 4.41 0.52
293.00 288.00 0.00 4.44 0.52
294.00 288.00 0.00 4.47 0.51
295.00 288.00 0.00 4.50 0.51
296.00 288.00 0.00 4.53 0.50
297.00 288.00 0.00 4.55 0.49
298.00 288.00 0.00 4.59 0.49
299.00 288.00 0.00 4.62 0.48
300.00 288.00 0.00 4.65 0.48
301.00 288.00 0.00 4.68 0.47
302.00 288.00 0.00 4.71 0.46
303.00 288.00 0.00 4.74 0.46
304.00 288.00 0.00 4.77 0.45
305.00 288.00 0.00 4.80 0.45
306.00 288.00 0.00 4.83 0.44
307.00 288.00 0.00 4.86 0.43
308.00 288.00 0.00 4.89 0.43
309.00 288.00 0.00 4.92 0.42
310.00 288.00 0.00 4.95 0.42
311.00 288.00 0.00 4.98 0.41
312.00 288.00 0.00 5.01 0.40
313.00 288.00 0.00 5.04 0.40
314.00 288.00 0.00 5.07 0.39
315.00 288.00 0.00 5.10 0.38
316.00 288.00 0.00 5.12 0.38
317.00 288.00 0.00 5.16 0.37
318.00 288.00 0.00 5.19 0.37
319.00 288.00 0.00 5.22 0.36
320.00 288.00 0.00 5.25 0.35
321.00 288.00 0.00 5.28 0.35
322.00 288.00 0.00 5.31 0.34
323.00 288.00 0.00 5.34 0.34
324.00 288.00 0.00 5.37 0.33
325.00 288.00 0.00 5.40 0.32
326.00 288.00 0.00 5.43 0.32
327.00 288.00 0.00 5.46 0.31
328.00 288.00 0.00 5.49 0.31
329.00 288.00 0.00 5.52 0.30
330.00 288.00 0.00 5.55 0.29
331.00 288.00 0.00 5.58 0.29
332.00 288.00 0.00 5.61 0.28
333.00 288.00 0.00 5.64 0.27
334.00 288.00 0.00 5.67 0.27
335.00 288.00 0.00 5.70 0.26
336.00 288.00 0.00 5.73 0.26
337.00 288.00 0.00 5.76 0.25
338.00 288.00 0.00 5.79 0.24
339.00 288.00 0.00 5.82 0.24
340.00 288.00 0.00 5.85 0.23
341.00 288.00 0.00 5.88 0.23
342.00 288.00 0.00 5.91 0.22
343.00 288.00 0.00 5.94 0.21
344.00 288.00 0.00 5.97 0.21
345.00 288.00 0.00 6.00 0.20
346.00 288.00 0.00 6.03 0.20
347.00 288.00 0.00 6.06 0.19
348.00 288.00 0.00 6.09 0.18
349.00 288.00 0.00 6.12 0.18
350.00 288.00 0.00 6.15 0.17
351.00 288.00 0.00 6.18 0.16
352.00 288.00 0.00 6.21 0.16
353.00 288.00 0.00 6.24 0.15
354.00 288.00 0.00 6.27 0.15
355.00 288.00 0.00 6.30 0.14
356.00 288.00 0.00 6.33 0.13
357.00 288.00 0.00 6.36 0.13
358.00 288.00 0.00 6.39 0.12
359.00 288.00 0.00 6.42 0.12
360.00 288.00 0.00 6.45 0.11
361.00 288.00 0.00 6.48 0.10
362.00 288.00 0.00 6.51 0.10
363.00 288.00 0.00 6.54 0.09
364.00 288.00 0.00 6.57 0.09
365.00 288.00 0.00 6.60 0.08
366.00 288.00 0.00 6.63 0.07
367.00 288.00 0.00 6.66 0.07
368.00 288.00 0.00 6.69 0.06
369.00 288.00 0.00 6.72 0.05
370.00 288.00 0.00 6.75 0.05
371.00 288.00 0.00 6.78 0.04
372.00 288.00 0.00 6.81 0.04
373.00 288.00 0.00 6.84 0.03
374.00 288.00 0.00 6.87 0.02
375.00 288.00 0.00 6.90 0.02
376.00 288.00 0.00 6.93 0.01
377.00 288.00 0.00 6.96 0.01
378.00 288.00 0.00 6.99 -0.00
379.00 288.00 0.00 7.02 -0.01
380.00 288.00 0.00 7.05 -0.01
381.00 288.00 0.00 7.08 -0.02
382.00 288.00 0.00 7.11 -0.02
383.00 288.00 0.00 7.14 -0.03
384.00 288.00 0.00 7.17 -0.04
385.00 288.00 0.00 7.20 -0.04
386.00 288.00 0.00 7.23 -0.05
387.00 288.00 0.00 7.26 -0.05
388.00 288.00 0.00 7.29 -0.06
389.00 288.00 0.00 7.32 -0.07
390.00 288.00 0.00 7.35 -0.07
391.00 288.00 0.00 7.38 -0.08
392.00 288.00 0.00 7.40 -0.09
393.00 288.00 0.00 7.44 -0.09
394.00 288.00 0.00 7.47 -0.10
395.00 288.00 0.00 7.50 -0.10
396.00 288.00 0.00 7.52 -0.11
397.00 288.00 0.00 7.56 -0.12
398.00 288.00 0.00 7.59 -0.12
399.00 288.00 0.00 7.62 -0.13
400.00 288.00 0.00 7.65 -0.13
401.00 288.00 0.00 7.68 -0.14
402.00 288.00 0.00 7.71 -0.15
403.00 288.00 0.00 7.74 -0.15
404.00 288.00 0.00 7.76 -0.16
405.00 288.00 0.00 7.80 -0.16
406.00 288.00 0.00 7.83 -0.17
407.00 288.00 0.00 7.86 -0.18
408.00 288.00 0.00 7.89 -0.18
409.00 288.00 0.00 7.92 -0.19
410.00 288.00 0.00 7.95 -0.20
411.00 288.00 0.00 7.98 -0.20
412.00 288.00 0.00 8.01 -0.21
413.00 288.00 0.00 8.04 -0.21
414.00 288.00 0.00 8.07 -0.22
415.00 288.00 0.00 8.10 -0.23
416.00 288.00 0.00 8.12 -0.23
417.00 288.00 0.00 8.16 -0.24
418.00 288.00 0.00 8.19 -0.24
419.00 288.00 0.00 8.22 -0.25
420.00 288.00 0.00 8.25 -0.26
421.00 288.00 0.00 8.28 -0.26
422.00 288.00 0.00 8.31 -0.27
423.00 288.00 0.00 8.34 -0.27
424.00 288.00 0.00 8.37 -0.28
425.00 288.00 0.00 8.40 -0.29
426.00 288.00 0.00 8.43 -0.29
427.00 288.00 0.00 8.46 -0.30
428.00 288.00 0.00 8.49 -0.31
429.00 288.00 0.00 8.52 -0.31
430.00 288.00 0.00 8.55 -0.32
431.00 288.00 0.00 8.58 -0.32
432.00 288.00 0.00 8.61 -0.33
433.00 288.00 0.00 8.63 -0.34
434.00 288.00 0.00 8.67 -0.34
435.00 288.00 0.00 8.70 -0.35
436.00 288.00 0.00 8.73 -0.35
437.00 288.00 0.00 8.76 -0.36
438.00 288.00 0.00 8.79 -0.37
439.00 288.00 0.00 8.82 -0.37
440.00 288.00 0.00 8.85 -0.38
441.00 288.00 0.00 8.88 -0.38
442.00 288.00 0.00 8.91 -0.39
443.00 288.00 0.00 8.94 -0.40
444.00 288.00 0.00 8.97 -0.40
445.00 288.00 0.00 9.00 -0.41
446.00 288.00 0.00 9.03 -0.42
447.00 288.00 0.00 9.06 -0.42
448.00 288.00 0.00 9.09 -0.43
449.00 288.00 0.00 9.12 -0.43
450.00 288.00 0.00 9.15 -0.44
451.00 288.00 0.00 9.18 -0.45
452.00 288.00 0.00 9.21 -0.45
453.00 288.00 0.00 9.24 -0.46
454.00 288.00 0.00 9.27 -0.46
455.00 288.00 0.00 9.30 -0.47
456.00 288.00 0.00 9.33 -0.48
457.00 288.00 0.00 9.36 -0.48
458.00 288.00 0.00 9.39 -0.49
459.00 288.00 0.00 9.42 -0.49
460.00 288.00 0.00 9.45 -0.50
461.00 288.00 0.00 9.48 -0.51
462.00 288.00 0.00 9.51 -0.51
463.00 288.00 0.00 9.54 -0.52
464.00 288.00 0.00 9.56 -0.52
465.00 288.00 0.00 9.60 -0.53
466.00 288.00 0.00 9.63 -0.54
467.00 288.00 0.00 9.66 -0.54
468.00 288.00 0.00 9.69 -0.55
469.00 288.00 0.00 9.72 -0.56
470.00 288.00 0.00 9.75 -0.56
471.00 288.00 0.00 9.78 -0.57
472.00 288.00 0.00 9.81 -0.57
473.00 288.00 0.00 9.84 -0.58
474.00 288.00 0.00 9.87 -0.59
475.00 288.00 0.00 9.90 -0.59
476.00 288.00 0.00 9.93 -0.60
477.00 288.00 0.00 9.96 -0.60
478.00 288.00 0.00 9.99 -0.61
479.00 288.00 0.00 10.02 -0.62
480.00 288.00 0.00 10.05 -0.62
481.00 288.00 0.00 10.08 -0.63
482.00 288.00 0.00 10.11 -0.63
483.00 288.00 0.00 10.14 -0.64
484.00 288.00 0.00 10.17 -0.65
485.00 288.00 0.00 10.20 -0.65
486.00 288.00 0.00 10.23 -0.66
487.00 288.00 0.00 10.26 -0.66
488.00 288.00 0.00 10.29 -0.67
489.00 288.00 0.00 10.32 -0.68
490.00 288.00 0.00 10.35 -0.68
491.00 288.00 0.00 10.38 -0.69
492.00 288.00 0.00 10.41 -0.70
493.00 288.00 0.00 10.44 -0.70
494.00 288.00 0.00 10.47 -0.71
495.00 288.00 0.00 10.50 -0.71
496.00 288.00 0.00 10.53 -0.72
497.00 288.00 0.00 10.56 -0.73
498.00 288.00 0.00 10.59 -0.73
499.00 288.00 0.00 10.62 -0.74
500.00 288.00 0.00 10.65 -0.74
501.00 288.00 0.00 10.67 -0.75
502.00 288.00 0.00 10.70 -0.76
503.00 288.00 0.00 10.73 -0.76
504.00 288.00 0.00 10.76 -0.77
505.00 288.00 0.00 10.79 -0.77
506.00 288.00 0.00 10.82 -0.78
507.00 288.00 0.00 10.85 -0.79
508.00 288.00 0.00 10.88 -0.79
509.00 288.00 0.00 10.91 -0.80
510.00 288.00 0.00 10.94 -0.80
511.00 288.00 0.00 10.97 -0.81
512.00 288.00 0.00 10.99 -0.81
513.00 288.00 0.00 11.02 -0.82
514.00 288.00 0.00 11.05 -0.83
515.00 288.00 0.00 11.08 -0.83
516.00 288.00 0.00 11.10 -0.84
517.00 288.00 0.00 11.13 -0.84
518.00 288.00 0.00 11.16 -0.85
519.00 288.00 0.00 11.19 -0.85
520.00 288.00 0.00 11.21 -0.86
521.00 288.00 0.00 11.24 -0.86
522.00 288.00 0.00 11.27 -0.87
523.00 288.00 0.00 11.29 -0.87
524.00 288.00 0.00 11.32 -0.88
525.00 288.00 0.00 11.34 -0.88
526.00 288.00 0.00 11.37 -0.89
527.00 288.00 0.00 11.40 -0.90
528.00 288.00 0.00 11.42 -0.90
529.00 288.00 0.00 11.45 -0.91
530.00 288.00 0.00 11.47 -0.91
531.00 288.00 0.00 11.50 -0.92
532.00 288.00 0.00 11.52 -0.92
533.00 288.00 0.00 11.55 -0.93
534.00 288.00 0.00 11.57 -0.93
535.00 288.00 0.00 11.59 -0.94
536.00 288.00 0.00 11.62 -0.94
537.00 288.00 0.00 11.64 -0.94
538.00 288.00 0.00 11.67 -0.95
539.00 288.00 0.00 11.69 -0.95
540.00 288.00 0.00 11.71 -0.96
541.00 288.00 0.00 11.74 -0.96
542.00 288.00 0.00 11.76 -0.97
543.00 288.00 0.00 11.78 -0.97
544.00 288.00 0.00 11.81 -0.98
545.00 288.00 0.00 11.83 -0.98
546.00 288.00 0.00 11.85 -0.99
547.00 288.00 0.00 11.87 -0.99
548.00 288.00 0.00 11.90 -1.00
549.00 288.00 0.00 11.92 -1.00
550.00 288.00 0.00 11.94 -1.00
551.00 288.00 0.00 11.96 -1.01
552.00 288.00 0.00 11.98 -1.01
553.00 288.00 0.00 12.00 -1.02
554.00 288.00 0.00 12.02 -1.02
555.00 288.00 0.00 12.05 -1.03
556.00 288.00 0.00 12.07 -1.03
557.00 288.00 0.00 12.09 -1.03
558.00 288.00 0.00 12.11 -1.04
559.00 288.00 0.00 12.13 -1.04
560.00 288.00 0.00 12.15 -1.05
561.00 288.00 0.00 12.17 -1.05
562.00 288.00 0.00 12.19 -1.05
563.00 288.00 0.00 12.21 -1.06
564.00 288.00 0.00 12.23 -1.06
565.00 288.00 0.00 12.25 -1.07
566.00 288.00 0.00 12.27 -1.07
567.00 288.00 0.00 12.28 -1.07
568.00 288.00 0.00 12.30 -1.08
569.00 288.00 0.00 12.32 -1.08
570.00 288.00 0.00 12.34 -1.08
571.00 288.00 0.00 12.36 -1.09
572.00 288.00 0.00 12.38 -1.09
573.00 288.00 0.00 12.39 -1.10
574.00 288.00 0.00 12.41 -1.10
575.00 288.00 0.00 12.43 -1.10
576.00 288.00 0.00 12.45 -1.11
577.00 288.00 0.00 12.46 -1.11
578.00 288.00 0.00 12.48 -1.11
579.00 288.00 0.00 12.50 -1.12
580.00 288.00 0.00 12.52 -1.12
581.00 288.00 0.00 12.53 -1.12
582.00 288.00 0.00 12.55 -1.13
583.00 288.00 0.00 12.56 -1.13
584.00 288.00 0.00 12.58 -1.13
585.00 288.00 0.00 12.60 -1.14
586.00 288.00 0.00 12.61 -1.14
587.00 288.00 0.00 12.63 -1.14
588.00 288.00 0.00 12.64 -1.15
589.00 288.00 0.00 12.66 -1.15
590.00 288.00 0.00 12.67 -1.15
591.00 288.00 0.00 12.69 -1.15
592.00 288.00 0.00 12.70 -1.16
593.00 288.00 0.00 12.72 -1.16
594.00 288.00 0.00 12.73 -1.16
595.00 288.00 0.00 12.75 -1.17
596.00 288.00 0.00 12.76 -1.17
597.00 288.00 0.00 12.78 -1.17
598.00 288.00 0.00 12.79 -1.17
599.00 288.00 0.00 12.80 -1.18
600.00 288.00 0.00 12.82 -1.18
601.00 288.00 0.00 12.83 -1.18
602.00 288.00 0.00 12.84 -1.19
603.00 288.00 0.00 12.86 -1.19
604.00 288.00 0.00 12.87 -1.19
605.00 288.00 0.00 12.88 -1.19
606.00 288.00 0.00 12.89 -1.20
607.00 288.00 0.00 12.91 -1.20
608.00 288.00 0.00 12.92 -1.20
609.00 288.00 0.00 12.93 -1.20
610.00 288.00 0.00 12.94 -1.21
611.00 288.00 0.00 12.95 -1.21
612.00 288.00 0.00 12.96 -1.21
613.00 288.00 0.00 12.98 -1.21
614.00 288.00 0.00 12.99 -1.21
615.00 288.00 0.00 13.00 -1.22
616.00 288.00 0.00 13.01 -1.22
617.00 288.00 0.00 13.02 -1.22
618.00 288.00 0.00 13.03 -1.22
619.00 288.00 0.00 13.04 -1.22
620.00 288.00 0.00 13.05 -1.23
621.00 288.00 0.00 13.06 -1.23
622.00 288.00 0.00 13.07 -1.23
623.00 288.00 0.00 13.08 -1.23
624.00 288.00 0.00 13.09 -1.23
625.00 288.00 0.00 13.10 -1.24
626.00 288.00 0.00 13.11 -1.24
627.00 288.00 0.00 13.12 -1.24
628.00 288.00 0.00 13.13 -1.24
629.00 288.00 0.00 13.13 -1.24
630.00 288.00 0.00 13.14 -1.24
631.00 288.00 0.00 13.15 -1.25
632.00 288.00 0.00 13.16 -1.25
633.00 288.00 0.00 13.17 -1.25
634.00 288.00 0.00 13.17 -1.25
635.00 288.00 0.00 13.18 -1.25
636.00 288.00 0.00 13.19 -1.25
637.00 288.00 0.00 13.20 -1.26
638.00 288.00 0.00 13.20 -1.26
639.00 288.00 0.00 13.21 -1.26
640.00 288.00 0.00 13.22 -1.26
641.00 288.00 0.00 13.22 -1.26
642.00 288.00 0.00 13.23 -1.26
643.00 288.00 0.00 13.24 -1.26
644.00 288.00 0.00 13.24 -1.26
645.00 288.00 0.00 13.25 -1.27
646.00 288.00 0.00 13.25 -1.27
647.00 288.00 0.00 13.26 -1.27
648.00 288.00 0.00 13.27 -1.27
649.00 288.00 0.00 13.27 -1.27
650.00 288.00 0.00 13.28 -1.27
651.00 288.00 0.00 13.28 -1.27
652.00 288.00 0.00 13.29 -1.27
653.00 288.00 0.00 13.29 -1.27
654.00 288.00 0.00 13.30 -1.28
655.00 288.00 0.00 13.30 -1.28
656.00 288.00 0.00 13.30 -1.28
657.00 288.00 0.00 13.31 -1.28
658.00 288.00 0.00 13.31 -1.28
659.00 288.00 0.00 13.31 -1.28
660.00 288.00 0.00 13.32 -1.28
661.00 288.00 0.00 13.32 -1.28
662.00 288.00 0.00 13.32 -1.28
663.00 288.00 0.00 13.33 -1.28
664.00 288.00 0.00 13.33 -1.28
665.00 288.00 0.00 13.33 -1.28
666.00 288.00 0.00 13.34 -1.28
667.00 288.00 0.00 13.34 -1.28
668.00 288.00 0.00 13.34 -1.28
669.00 288.00 0.00 13.34 -1.28
670.00 288.00 0.00 13.34 -1.28
671.00 288.00 0.00 13.35 -1.28
672.00 288.00 0.00 13.35 -1.29
673.00 288.00 0.00 13.35 -1.29
674.00 288.00 0.00 13.35 -1.29
675.00 288.00 0.00 13.35 -1.29
676.00 288.00 0.00 13.35 -1.29
677.00 288.00 0.00 13.35 -1.29
678.00 288.00 0.00 13.35 -1.29
679.00 288.00 0.00 13.35 -1.29
680.00 288.00 0.00 13.35 -1.29
681.00 288.00 0.00 13.35 -1.29
682.00 288.00 0.00 13.35 -1.29
683.00 288.00 0.00 13.35 -1.29
684.00 288.00 0.00 13.35 -1.29
685.00 288.00 0.00 13.35 -1.29
686.00 288.00 0.00 13.35 -1.29
687.00 288.00 0.00 13.35 -1.29
688.00 288.00 0.00 13.35 -1.29
689.00 288.00 0.00 13.35 -1.29
690.00 288.00 0.00 13.35 -1.29
691.00 288.00 0.00 13.35 -1.29
692.00 288.00 0.00 13.35 -1.29
693.00 288.00 0.00 13.35 -1.29
694.00 288.00 0.00 13.35 -1.29
695.00 288.00 0.00 13.35 -1.29
696.00 288.00 0.00 13.35 -1.29
697.00 288.00 0.00 13.35 -1.29
698.00 288.00 0.00 13.35 -1.29
699.00 288.00 0.00 13.35 -1.29
700.00 288.00 0.00 13.35 -1.29
701.00 288.00 0.00 13.35 -1.29
702.00 288.00 0.00 13.35 -1.29
703.00 288.00 0.00 13.35 -1.29
704.00 288.00 0.00 13.35 -1.29
705.00 288.00 0.00 13.35 -1.29
706.00 288.00 0.00 13.35 -1.29
707.00 288.00 0.00 13.35 -1.29
708.00 288.00 0.00 13.35 -1.29
709.00 288.00 0.00 13.35 -1.29
710.00 288.00 0.00 13.35 -1.29
711.00 288.00 0.00 13.35 -1.29
712.00 288.00 0.00 13.35 -1.29
713.00 288.00 0.00 13.35 -1.29
714.00 288.00 0.00 13.35 -1.29
715.00 288.00 0.00 13.35 -1.29
716.00 288.00 0.00 13.35 -1.29
717.00 288.00 0.00 13.35 -1.29
718.00 288.00 0.00 13.35 -1.29
719.00 288.00 0.00 13.35 -1.29
720.00 288.00 0.00 13.35 -1.29
721.00 288.00 0.00 13.35 -1.29
722.00 288.00 0.00 13.35 -1.29
723.00 288.00 0.00 13.35 -1.29
724.00 288.00 0.00 13.35 -1.29
725.00 288.00 0.00 13.35 -1.29
726.00 288.00 0.00 13.35 -1.29
727.00 288.00 0.00 13.35 -1.29
728.00 288.00 0.00 13.35 -1.29
729.00 288.00 0.00 13.35 -1.29
730.00 288.00 0.00 13.35 -1.29
731.00 288.00 0.00 13.35 -1.29
732.00 288.00 0.00 13.35 -1.29
733.00 288.00 0.00 13.35 -1.29
734.00 288.00 0.00 13.35 -1.29
735.00 288.00 0.00 13.35 -1.29
736.00 288.00 0.00 13.35 -1.29
737.00 288.00 0.00 13.35 -1.29
738.00 288.00 0.00 13.35 -1.29
739.00 288.00 0.00 13.35 -1.29
740.00 288.00 0.00 13.35 -1.29
741.00 288.00 0.00 13.35 -1.29
742.00 288.00 0.00 13.35 -1.29
743.00 288.00 0.00 13.35 -1.29
744.00 288.00 0.00 13.35 -1.29
745.00 288.00 0.00 13.35 -1.29
746.00 288.00 0.00 13.35 -1.29
747.00 288.00 0.00 13.35 -1.29
748.00 288.00 0.00 13.35 -1.29
749.00 288.00 0.00 13.35 -1.29
750.00 288.00 0.00 13.35 -1.29
751.00 288.00 0.00 13.35 -1.29
752.00 288.00 0.00 13.35 -1.29
753.00 288.00 0.00 13.35 -1.29
754.00 288.00 0.00 13.35 -1.29
755.00 288.00 0.00 13.35 -1.29
756.00 288.00 0.00 13.35 -1.29
757.00 288.00 0.00 13.35 -1.29
758.00 288.00 0.00 13.35 -1.29
759.00 288.00 0.00 13.35 -1.29
760.00 288.00 0.00 13.35 -1.29
761.00 288.00 0.00 13.35 -1.29
762.00 288.00 0.00 13.35 -1.29
763.00 288.00 0.00 13.35 -1.29
764.00 288.00 0.00 13.35 -1.29
765.00 288.00 0.00 13.35 -1.29
766.00 288.00 0.00 13.35 -1.29
767.00 288.00 0.00 13.35 -1.29
768.00 288.00 0.00 13.35 -1.29
769.00 288.00 0.00 13.35 -1.29
770.00 288.00 0.00 13.35 -1.29
771.00 288.00 0.00 13.35 -1.29
772.00 288.00 0.00 13.35 -1.29
773.00 288.00 0.00 13.35 -1.29
774.00 288.00 0.00 13.35 -1.29
775.00 288.00 0.00 13.35 -1.29
776.00 288.00 0.00 13.35 -1.29
777.00 288.00 0.00 13.35 -1.29
778.00 288.00 0.00 13.35 -1.29
779.00 288.00 0.00 13.35 -1.29
780.00 288.00 0.00 13.35 -1.29
781.00 288.00 0.00 13.35 -1.29
782.00 288.00 0.00 13.35 -1.29
783.00 288.00 0.00 13.35 -1.29
784.00 288.00 0.00 13.35 -1.29
785.00 288.00 0.00 13.35 -1.29
786.00 288.00 0.00 13.35 -1.29
787.00 288.00 0.00 13.35 -1.29
788.00 288.00 0.00 13.35 -1.29
789.00 288.00 0.00 13.35 -1.29
790.00 288.00 0.00 13.35 -1.29
791.00 288.00 0.00 13.35 -1.29
792.00 288.00 0.00 13.35 -1.29
793.00 288.00 0.00 13.35 -1.29
794.00 288.00 0.00 13.35 -1.29
795.00 288.00 0.00 13.35 -1.29
796.00 288.00 0.00 13.35 -1.29
797.00 288.00 0.00 13.35 -1.29
798.00 288.00 0.00 13.35 -1.29
799.00 288.00 0.00 13.35 -1.29
800.00 288.00 0.00 13.35 -1.29
801.00 288.00 0.00 13.35 -1.29
802.00 288.00 0.00 13.35 -1.29
803.00 288.00 0.00 13.35 -1.29
804.00 288.00 0.00 13.35 -1.29
805.00 288.00 0.00 13.35 -1.29
806.00 288.00 0.00 13.35 -1.29
807.00 288.00 0.00 13.35 -1.29
808.00 288.00 0.00 13.35 -1.29
809.00 288.00 0.00 13.35 -1.29
810.00 288.00 0.00 13.35 -1.29
811.00 288.00 0.00 13.35 -1.29
812.00 288.00 0.00 13.35 -1.29
813.00 288.00 0.00 13.35 -1.29
814.00 288.00 0.00 13.35 -1.29
815.00 288.00 0.00 13.35 -1.29
816.00 288.00 0.00 13.35 -1.29
817.00 288.00 0.00 13.35 -1.29
818.00 288.00 0.00 13.35 -1.29
819.00 288.00 0.00 13.35 -1.29
820.00 288.00 0.00 13.35 -1.29
821.00 288.00 0.00 13.35 -1.29
822.00 288.00 0.00 13.35 -1.29
823.00 288.00 0.00 13.35 -1.29
824.00 288.00 0.00 13.35 -1.29
825.00 288.00 0.00 13.35 -1.29
826.00 288.00 0.00 13.35 -1.29
827.00 288.00 0.00 13.35 -1.29
828.00 288.00 0.00 13.35 -1.29
829.00 288.00 0.00 13.35 -1.29
830.00 288.00 0.00 13.35 -1.29
831.00 288.00 0.00 13.35 -1.29
