1000.00 288.00 00.00
0.00 288.00 0.00 15.70 4.24
1.00 288.00 0.00 15.70 4.24
2.00 288.00 0.00 15.70 4.24
3.00 288.00 0.00 15.70 4.24
4.00 288.00 0.00 15.70 4.24
5.00 288.00 0.00 15.70 4.24
6.00 288.00 0.00 15.70 4.24
7.00 288.00 0.00 15.70 4.24
8.00 288.00 0.00 15.70 4.24
9.00 288.00 0.00 15.70 4.24
10.00 288.00 0.00 15.70 4.24
11.00 288.00 0.00 15.70 4.24
12.00 288.00 0.00 15.70 4.24
13.00 288.00 0.00 15.70 4.24
14.00 288.00 0.00 15.70 4.24
15.00 288.00 0.00 15.70 4.24
16.00 288.00 0.00 15.70 4.24
17.00 288.00 0.00 15.70 4.24
18.00 288.00 0.00 15.70 4.24
19.00 288.00 0.00 15.70 4.24
20.00 288.00 0.00 15.70 4.24
21.00 288.00 0.00 15.70 4.24
22.00 288.00 0.00 15.70 4.24
23.00 288.00 0.00 15.70 4.24
24.00 288.00 0.00 15.70 4.24
25.00 288.00 0.00 15.70 4.24
26.00 288.00 0.00 15.70 4.24
27.00 288.00 0.00 15.70 4.24
28.00 288.00 0.00 15.70 4.24
29.00 288.00 0.00 15.70 4.24
30.00 288.00 0.00 15.70 4.24
31.00 288.00 0.00 15.70 4.24
32.00 288.00 0.00 15.70 4.24
33.00 288.00 0.00 15.70 4.24
34.00 288.00 0.00 15.70 4.24
35.00 288.00 0.00 15.70 4.24
36.00 288.00 0.00 15.70 4.24
37.00 288.00 0.00 15.70 4.24
38.00 288.00 0.00 15.70 4.24
39.00 288.00 0.00 15.70 4.24
40.00 288.00 0.00 15.70 4.24
41.00 288.00 0.00 15.70 4.24
42.00 288.00 0.00 15.70 4.24
43.00 288.00 0.00 15.70 4.24
44.00 288.00 0.00 15.70 4.24
45.00 288.00 0.00 15.70 4.24
46.00 288.00 0.00 15.69 4.24
47.00 288.00 0.00 15.69 4.24
48.00 288.00 0.00 15.69 4.24
49.00 288.00 0.00 15.69 4.24
50.00 288.00 0.00 15.69 4.24
51.00 288.00 0.00 15.69 4.23
52.00 288.00 0.00 15.68 4.23
53.00 288.00 0.00 15.68 4.23
54.00 288.00 0.00 15.68 4.23
55.00 288.00 0.00 15.68 4.23
56.00 288.00 0.00 15.67 4.23
57.00 288.00 0.00 15.67 4.23
58.00 288.00 0.00 15.67 4.23
59.00 288.00 0.00 15.66 4.22
60.00 288.00 0.00 15.66 4.22
61.00 288.00 0.00 15.65 4.22
62.00 288.00 0.00 15.65 4.22
63.00 288.00 0.00 15.65 4.22
64.00 288.00 0.00 15.64 4.22
65.00 288.00 0.00 15.64 4.21
66.00 288.00 0.00 15.63 4.21
67.00 288.00 0.00 15.63 4.21
68.00 288.00 0.00 15.62 4.21
69.00 288.00 0.00 15.62 4.20
70.00 288.00 0.00 15.61 4.20
71.00 288.00 0.00 15.60 4.20
72.00 288.00 0.00 15.60 4.20
73.00 288.00 0.00 15.59 4.19
74.00 288.00 0.00 15.59 4.19
75.00 288.00 0.00 15.58 4.19
76.00 288.00 0.00 15.57 4.19
77.00 288.00 0.00 15.56 4.18
78.00 288.00 0.00 15.56 4.18
79.00 288.00 0.00 15.55 4.18
80.00 288.00 0.00 15.54 4.17
81.00 288.00 0.00 15.53 4.17
82.00 288.00 0.00 15.53 4.17
83.00 288.00 0.00 15.52 4.16
84.00 288.00 0.00 15.51 4.16
85.00 288.00 0.00 15.50 4.16
86.00 288.00 0.00 15.49 4.15
87.00 288.00 0.00 15.48 4.15
88.00 288.00 0.00 15.47 4.14
89.00 288.00 0.00 15.46 4.14
90.00 288.00 0.00 15.45 4.14
91.00 288.00 0.00 15.45 4.13
92.00 288.00 0.00 15.44 4.13
93.00 288.00 0.00 15.42 4.12
94.00 288.00 0.00 15.41 4.12
95.00 288.00 0.00 15.40 4.11
96.00 288.00 0.00 15.39 4.11
97.00 288.00 0.00 15.38 4.10
98.00 288.00 0.00 15.37 4.10
99.00 288.00 0.00 15.36 4.09
100.00 288.00 0.00 15.35 4.09
101.00 288.00 0.00 15.34 4.08
102.00 288.00 0.00 15.32 4.08
103.00 288.00 0.00 15.31 4.07
104.00 288.00 0.00 15.30 4.07
105.00 288.00 0.00 15.29 4.06
106.00 288.00 0.00 15.27 4.06
107.00 288.00 0.00 15.26 4.05
108.00 288.00 0.00 15.25 4.05
109.00 288.00 0.00 15.24 4.04
110.00 288.00 0.00 15.22 4.04
111.00 288.00 0.00 15.21 4.03
112.00 288.00 0.00 15.19 4.02
113.00 288.00 0.00 15.18 4.02
114.00 288.00 0.00 15.17 4.01
115.00 288.00 0.00 15.15 4.01
116.00 288.00 0.00 15.14 4.00
117.00 288.00 0.00 15.12 3.99
118.00 288.00 0.00 15.11 3.99
119.00 288.00 0.00 15.09 3.98
120.00 288.00 0.00 15.08 3.97
121.00 288.00 0.00 15.06 3.97
122.00 288.00 0.00 15.04 3.96
123.00 288.00 0.00 15.03 3.95
124.00 288.00 0.00 15.01 3.94
125.00 288.00 0.00 15.00 3.94
126.00 288.00 0.00 14.98 3.93
127.00 288.00 0.00 14.96 3.92
128.00 288.00 0.00 14.95 3.92
129.00 288.00 0.00 14.93 3.91
130.00 288.00 0.00 14.91 3.90
131.00 288.00 0.00 14.89 3.89
132.00 288.00 0.00 14.88 3.89
133.00 288.00 0.00 14.86 3.88
134.00 288.00 0.00 14.84 3.87
135.00 288.00 0.00 14.82 3.86
136.00 288.00 0.00 14.80 3.85
137.00 288.00 0.00 14.78 3.84
138.00 288.00 0.00 14.76 3.84
139.00 288.00 0.00 14.75 3.83
140.00 288.00 0.00 14.73 3.82
141.00 288.00 0.00 14.71 3.81
142.00 288.00 0.00 14.69 3.80
143.00 288.00 0.00 14.67 3.79
144.00 288.00 0.00 14.65 3.78
145.00 288.00 0.00 14.63 3.78
146.00 288.00 0.00 14.61 3.77
147.00 288.00 0.00 14.59 3.76
148.00 288.00 0.00 14.56 3.75
149.00 288.00 0.00 14.54 3.74
150.00 288.00 0.00 14.52 3.73
151.00 288.00 0.00 14.50 3.72
152.00 288.00 0.00 14.48 3.71
153.00 288.00 0.00 14.46 3.70
154.00 288.00 0.00 14.43 3.69
155.00 288.00 0.00 14.41 3.68
156.00 288.00 0.00 14.39 3.67
157.00 288.00 0.00 14.37 3.66
158.00 288.00 0.00 14.34 3.65
159.00 288.00 0.00 14.32 3.64
160.00 288.00 0.00 14.30 3.63
161.00 288.00 0.00 14.27 3.62
162.00 288.00 0.00 14.25 3.61
163.00 288.00 0.00 14.23 3.60
164.00 288.00 0.00 14.20 3.59
165.00 288.00 0.00 14.18 3.58
166.00 288.00 0.00 14.15 3.56
167.00 288.00 0.00 14.13 3.55
168.00 288.00 0.00 14.11 3.54
169.00 288.00 0.00 14.08 3.53
170.00 288.00 0.00 14.05 3.52
171.00 288.00 0.00 14.03 3.51
172.00 288.00 0.00 14.00 3.50
173.00 288.00 0.00 13.98 3.48
174.00 288.00 0.00 13.95 3.47
175.00 288.00 0.00 13.93 3.46
176.00 288.00 0.00 13.90 3.45
177.00 288.00 0.00 13.87 3.44
178.00 288.00 0.00 13.85 3.42
179.00 288.00 0.00 13.82 3.41
180.00 288.00 0.00 13.79 3.40
181.00 288.00 0.00 13.76 3.39
182.00 288.00 0.00 13.74 3.37
183.00 288.00 0.00 13.71 3.36
184.00 288.00 0.00 13.68 3.35
185.00 288.00 0.00 13.65 3.34
186.00 288.00 0.00 13.63 3.32
187.00 288.00 0.00 13.60 3.31
188.00 288.00 0.00 13.57 3.30
189.00 288.00 0.00 13.54 3.28
190.00 288.00 0.00 13.51 3.27
191.00 288.00 0.00 13.48 3.26
192.00 288.00 0.00 13.45 3.24
193.00 288.00 0.00 13.42 3.23
194.00 288.00 0.00 13.39 3.21
195.00 288.00 0.00 13.36 3.20
196.00 288.00 0.00 13.33 3.19
197.00 288.00 0.00 13.30 3.17
198.00 288.00 0.00 13.27 3.16
199.00 288.00 0.00 13.24 3.14
200.00 288.00 0.00 13.21 3.13
201.00 288.00 0.00 13.18 3.11
202.00 288.00 0.00 13.15 3.10
203.00 288.00 0.00 13.11 3.08
204.00 288.00 0.00 13.08 3.07
205.00 288.00 0.00 13.05 3.05
206.00 288.00 0.00 13.02 3.04
207.00 288.00 0.00 12.99 3.02
208.00 288.00 0.00 12.95 3.01
209.00 288.00 0.00 12.92 2.99
210.00 288.00 0.00 12.89 2.98
211.00 288.00 0.00 12.85 2.96
212.00 288.00 0.00 12.82 2.94
213.00 288.00 0.00 12.79 2.93
214.00 288.00 0.00 12.75 2.91
215.00 288.00 0.00 12.72 2.90
216.00 288.00 0.00 12.69 2.88
217.00 288.00 0.00 12.65 2.86
218.00 288.00 0.00 12.62 2.85
219.00 288.00 0.00 12.58 2.83
220.00 288.00 0.00 12.55 2.81
221.00 288.00 0.00 12.51 2.80
222.00 288.00 0.00 12.48 2.78
223.00 288.00 0.00 12.44 2.76
224.00 288.00 0.00 12.41 2.75
225.00 288.00 0.00 12.37 2.73
226.00 288.00 0.00 12.34 2.71
227.00 288.00 0.00 12.30 2.70
228.00 288.00 0.00 12.27 2.68
229.00 288.00 0.00 12.23 2.66
230.00 288.00 0.00 12.20 2.64
231.00 288.00 0.00 12.16 2.63
232.00 288.00 0.00 12.13 2.61
233.00 288.00 0.00 12.09 2.59
234.00 288.00 0.00 12.06 2.58
235.00 288.00 0.00 12.02 2.56
236.00 288.00 0.00 11.99 2.54
237.00 288.00 0.00 11.95 2.53
238.00 288.00 0.00 11.92 2.51
239.00 288.00 0.00 11.88 2.49
240.00 288.00 0.00 11.85 2.47
241.00 288.00 0.00 11.81 2.46
242.00 288.00 0.00 11.78 2.44
243.00 288.00 0.00 11.74 2.42
244.00 288.00 0.00 11.71 2.41
245.00 288.00 0.00 11.67 2.39
246.00 288.00 0.00 11.64 2.37
247.00 288.00 0.00 11.60 2.35
248.00 288.00 0.00 11.57 2.34
249.00 288.00 0.00 11.53 2.32
250.00 288.00 0.00 11.50 2.30
251.00 288.00 0.00 11.46 2.28
252.00 288.00 0.00 11.43 2.27
253.00 288.00 0.00 11.39 2.25
254.00 288.00 0.00 11.36 2.23
255.00 288.00 0.00 11.32 2.22
256.00 288.00 0.00 11.29 2.20
257.00 288.00 0.00 11.25 2.18
258.00 288.00 0.00 11.22 2.16
259.00 288.00 0.00 11.18 2.15
260.00 288.00 0.00 11.15 2.13
261.00 288.00 0.00 11.11 2.11
262.00 288.00 0.00 11.08 2.09
263.00 288.00 0.00 11.04 2.08
264.00 288.00 0.00 11.01 2.06
265.00 288.00 0.00 10.97 2.04
266.00 288.00 0.00 10.94 2.02
267.00 288.00 0.00 10.90 2.01
268.00 288.00 0.00 10.87 1.99
269.00 288.00 0.00 10.83 1.97
270.00 288.00 0.00 10.80 1.95
271.00 288.00 0.00 10.76 1.94
272.00 288.00 0.00 10.73 1.92
273.00 288.00 0.00 10.69 1.90
274.00 288.00 0.00 10.66 1.88
275.00 288.00 0.00 10.62 1.86
276.00 288.00 0.00 10.59 1.85
277.00 288.00 0.00 10.55 1.83
278.00 288.00 0.00 10.52 1.81
279.00 288.00 0.00 10.48 1.79
280.00 288.00 0.00 10.45 1.78
281.00 288.00 0.00 10.41 1.76
282.00 288.00 0.00 10.38 1.74
283.00 288.00 0.00 10.34 1.72
284.00 288.00 0.00 10.31 1.71
285.00 288.00 0.00 10.27 1.69
286.00 288.00 0.00 10.24 1.67
287.00 288.00 0.00 10.20 1.65
288.00 288.00 0.00 10.17 1.63
289.00 288.00 0.00 10.13 1.62
290.00 288.00 0.00 10.10 1.60
291.00 288.00 0.00 10.06 1.58
292.00 288.00 0.00 10.03 1.56
293.00 288.00 0.00 9.99 1.54
294.00 288.00 0.00 9.96 1.53
295.00 288.00 0.00 9.92 1.51
296.00 288.00 0.00 9.89 1.49
297.00 288.00 0.00 9.85 1.47
298.00 288.00 0.00 9.82 1.46
299.00 288.00 0.00 9.78 1.44
300.00 288.00 0.00 9.75 1.42
301.00 288.00 0.00 9.71 1.40
302.00 288.00 0.00 9.68 1.38
303.00 288.00 0.00 9.64 1.37
304.00 288.00 0.00 9.61 1.35
305.00 288.00 0.00 9.57 1.33
306.00 288.00 0.00 9.54 1.31
307.00 288.00 0.00 9.50 1.29
308.00 288.00 0.00 9.47 1.28
309.00 288.00 0.00 9.43 1.26
310.00 288.00 0.00 9.40 1.24
311.00 288.00 0.00 9.36 1.22
312.00 288.00 0.00 9.33 1.20
313.00 288.00 0.00 9.29 1.19
314.00 288.00 0.00 9.26 1.17
315.00 288.00 0.00 9.22 1.15
316.00 288.00 0.00 9.19 1.13
317.00 288.00 0.00 9.15 1.11
318.00 288.00 0.00 9.12 1.10
319.00 288.00 0.00 9.08 1.08
320.00 288.00 0.00 9.05 1.06
321.00 288.00 0.00 9.01 1.04
322.00 288.00 0.00 8.98 1.02
323.00 288.00 0.00 8.94 1.00
324.00 288.00 0.00 8.91 0.99
325.00 288.00 0.00 8.87 0.97
326.00 288.00 0.00 8.84 0.95
327.00 288.00 0.00 8.80 0.93
328.00 288.00 0.00 8.77 0.91
329.00 288.00 0.00 8.73 0.90
330.00 288.00 0.00 8.70 0.88
331.00 288.00 0.00 8.66 0.86
332.00 288.00 0.00 8.63 0.84
333.00 288.00 0.00 8.59 0.82
334.00 288.00 0.00 8.56 0.80
335.00 288.00 0.00 8.52 0.79
336.00 288.00 0.00 8.49 0.77
337.00 288.00 0.00 8.45 0.75
338.00 288.00 0.00 8.42 0.73
339.00 288.00 0.00 8.38 0.71
340.00 288.00 0.00 8.35 0.70
341.00 288.00 0.00 8.31 0.68
342.00 288.00 0.00 8.28 0.66
343.00 288.00 0.00 8.24 0.64
344.00 288.00 0.00 8.21 0.62
345.00 288.00 0.00 8.17 0.60
346.00 288.00 0.00 8.14 0.59
347.00 288.00 0.00 8.10 0.57
348.00 288.00 0.00 8.07 0.55
349.00 288.00 0.00 8.03 0.53
350.00 288.00 0.00 8.00 0.51
351.00 288.00 0.00 7.96 0.49
352.00 288.00 0.00 7.93 0.48
353.00 288.00 0.00 7.89 0.46
354.00 288.00 0.00 7.86 0.44
355.00 288.00 0.00 7.82 0.42
356.00 288.00 0.00 7.79 0.40
357.00 288.00 0.00 7.75 0.38
358.00 288.00 0.00 7.72 0.37
359.00 288.00 0.00 7.68 0.35
360.00 288.00 0.00 7.65 0.33
361.00 288.00 0.00 7.61 0.31
362.00 288.00 0.00 7.58 0.29
363.00 288.00 0.00 7.54 0.27
364.00 288.00 0.00 7.51 0.26
365.00 288.00 0.00 7.47 0.24
366.00 288.00 0.00 7.44 0.22
367.00 288.00 0.00 7.40 0.20
368.00 288.00 0.00 7.37 0.18
369.00 288.00 0.00 7.33 0.16
370.00 288.00 0.00 7.30 0.15
371.00 288.00 0.00 7.26 0.13
372.00 288.00 0.00 7.23 0.11
373.00 288.00 0.00 7.19 0.09
374.00 288.00 0.00 7.16 0.07
375.00 288.00 0.00 7.12 0.05
376.00 288.00 0.00 7.09 0.04
377.00 288.00 0.00 7.05 0.02
378.00 288.00 0.00 7.02 -0.00
379.00 288.00 0.00 6.98 -0.02
380.00 288.00 0.00 6.95 -0.04
381.00 288.00 0.00 6.91 -0.05
382.00 288.00 0.00 6.88 -0.07
383.00 288.00 0.00 6.84 -0.09
384.00 288.00 0.00 6.81 -0.11
385.00 288.00 0.00 6.77 -0.13
386.00 288.00 0.00 6.74 -0.15
387.00 288.00 0.00 6.70 -0.16
388.00 288.00 0.00 6.67 -0.18
389.00 288.00 0.00 6.63 -0.20
390.00 288.00 0.00 6.60 -0.22
391.00 288.00 0.00 6.56 -0.24
392.00 288.00 0.00 6.53 -0.26
393.00 288.00 0.00 6.49 -0.27
394.00 288.00 0.00 6.46 -0.29
395.00 288.00 0.00 6.42 -0.31
396.00 288.00 0.00 6.39 -0.33
397.00 288.00 0.00 6.35 -0.35
398.00 288.00 0.00 6.32 -0.37
399.00 288.00 0.00 6.28 -0.38
400.00 288.00 0.00 6.25 -0.40
401.00 288.00 0.00 6.21 -0.42
402.00 288.00 0.00 6.18 -0.44
403.00 288.00 0.00 6.14 -0.46
404.00 288.00 0.00 6.11 -0.48
405.00 288.00 0.00 6.07 -0.49
406.00 288.00 0.00 6.04 -0.51
407.00 288.00 0.00 6.00 -0.53
408.00 288.00 0.00 5.97 -0.55
409.00 288.00 0.00 5.93 -0.57
410.00 288.00 0.00 5.90 -0.59
411.00 288.00 0.00 5.86 -0.60
412.00 288.00 0.00 5.83 -0.62
413.00 288.00 0.00 5.79 -0.64
414.00 288.00 0.00 5.76 -0.66
415.00 288.00 0.00 5.72 -0.68
416.00 288.00 0.00 5.69 -0.70
417.00 288.00 0.00 5.65 -0.71
418.00 288.00 0.00 5.62 -0.73
419.00 288.00 0.00 5.58 -0.75
420.00 288.00 0.00 5.55 -0.77
421.00 288.00 0.00 5.51 -0.79
422.00 288.00 0.00 5.48 -0.80
423.00 288.00 0.00 5.44 -0.82
424.00 288.00 0.00 5.41 -0.84
425.00 288.00 0.00 5.37 -0.86
426.00 288.00 0.00 5.34 -0.88
427.00 288.00 0.00 5.30 -0.90
428.00 288.00 0.00 5.27 -0.91
429.00 288.00 0.00 5.23 -0.93
430.00 288.00 0.00 5.20 -0.95
431.00 288.00 0.00 5.16 -0.97
432.00 288.00 0.00 5.13 -0.99
433.00 288.00 0.00 5.09 -1.00
434.00 288.00 0.00 5.06 -1.02
435.00 288.00 0.00 5.02 -1.04
436.00 288.00 0.00 4.99 -1.06
437.00 288.00 0.00 4.95 -1.08
438.00 288.00 0.00 4.92 -1.10
439.00 288.00 0.00 4.88 -1.11
440.00 288.00 0.00 4.85 -1.13
441.00 288.00 0.00 4.81 -1.15
442.00 288.00 0.00 4.78 -1.17
443.00 288.00 0.00 4.74 -1.19
444.00 288.00 0.00 4.71 -1.20
445.00 288.00 0.00 4.67 -1.22
446.00 288.00 0.00 4.64 -1.24
447.00 288.00 0.00 4.60 -1.26
448.00 288.00 0.00 4.57 -1.28
449.00 288.00 0.00 4.53 -1.29
450.00 288.00 0.00 4.50 -1.31
451.00 288.00 0.00 4.46 -1.33
452.00 288.00 0.00 4.43 -1.35
453.00 288.00 0.00 4.39 -1.37
454.00 288.00 0.00 4.36 -1.38
455.00 288.00 0.00 4.32 -1.40
456.00 288.00 0.00 4.29 -1.42
457.00 288.00 0.00 4.25 -1.44
458.00 288.00 0.00 4.22 -1.46
459.00 288.00 0.00 4.18 -1.47
460.00 288.00 0.00 4.15 -1.49
461.00 288.00 0.00 4.11 -1.51
462.00 288.00 0.00 4.08 -1.53
463.00 288.00 0.00 4.04 -1.54
464.00 288.00 0.00 4.01 -1.56
465.00 288.00 0.00 3.97 -1.58
466.00 288.00 0.00 3.94 -1.60
467.00 288.00 0.00 3.90 -1.62
468.00 288.00 0.00 3.87 -1.63
469.00 288.00 0.00 3.83 -1.65
470.00 288.00 0.00 3.80 -1.67
471.00 288.00 0.00 3.76 -1.69
472.00 288.00 0.00 3.73 -1.71
473.00 288.00 0.00 3.69 -1.72
474.00 288.00 0.00 3.66 -1.74
475.00 288.00 0.00 3.62 -1.76
476.00 288.00 0.00 3.59 -1.78
477.00 288.00 0.00 3.55 -1.79
478.00 288.00 0.00 3.52 -1.81
479.00 288.00 0.00 3.48 -1.83
480.00 288.00 0.00 3.45 -1.85
481.00 288.00 0.00 3.41 -1.86
482.00 288.00 0.00 3.38 -1.88
483.00 288.00 0.00 3.34 -1.90
484.00 288.00 0.00 3.31 -1.92
485.00 288.00 0.00 3.27 -1.94
486.00 288.00 0.00 3.24 -1.95
487.00 288.00 0.00 3.20 -1.97
488.00 288.00 0.00 3.17 -1.99
489.00 288.00 0.00 3.13 -2.01
490.00 288.00 0.00 3.10 -2.02
491.00 288.00 0.00 3.06 -2.04
492.00 288.00 0.00 3.03 -2.06
493.00 288.00 0.00 2.99 -2.08
494.00 288.00 0.00 2.96 -2.09
495.00 288.00 0.00 2.92 -2.11
496.00 288.00 0.00 2.89 -2.13
497.00 288.00 0.00 2.85 -2.15
498.00 288.00 0.00 2.82 -2.16
499.00 288.00 0.00 2.78 -2.18
500.00 288.00 0.00 2.75 -2.20
501.00 288.00 0.00 2.71 -2.22
502.00 288.00 0.00 2.68 -2.23
503.00 288.00 0.00 2.64 -2.25
504.00 288.00 0.00 2.61 -2.27
505.00 288.00 0.00 2.57 -2.28
506.00 288.00 0.00 2.54 -2.30
507.00 288.00 0.00 2.50 -2.32
508.00 288.00 0.00 2.47 -2.34
509.00 288.00 0.00 2.43 -2.35
510.00 288.00 0.00 2.40 -2.37
511.00 288.00 0.00 2.36 -2.39
512.00 288.00 0.00 2.33 -2.41
513.00 288.00 0.00 2.29 -2.42
514.00 288.00 0.00 2.26 -2.44
515.00 288.00 0.00 2.22 -2.46
516.00 288.00 0.00 2.19 -2.47
517.00 288.00 0.00 2.15 -2.49
518.00 288.00 0.00 2.12 -2.51
519.00 288.00 0.00 2.08 -2.53
520.00 288.00 0.00 2.05 -2.54
521.00 288.00 0.00 2.01 -2.56
522.00 288.00 0.00 1.98 -2.58
523.00 288.00 0.00 1.94 -2.59
524.00 288.00 0.00 1.91 -2.61
525.00 288.00 0.00 1.87 -2.63
526.00 288.00 0.00 1.84 -2.64
527.00 288.00 0.00 1.80 -2.66
528.00 288.00 0.00 1.77 -2.68
529.00 288.00 0.00 1.73 -2.70
530.00 288.00 0.00 1.70 -2.71
531.00 288.00 0.00 1.66 -2.73
532.00 288.00 0.00 1.63 -2.75
533.00 288.00 0.00 1.59 -2.76
534.00 288.00 0.00 1.56 -2.78
535.00 288.00 0.00 1.52 -2.80
536.00 288.00 0.00 1.49 -2.81
537.00 288.00 0.00 1.45 -2.83
538.00 288.00 0.00 1.42 -2.85
539.00 288.00 0.00 1.38 -2.86
540.00 288.00 0.00 1.35 -2.88
541.00 288.00 0.00 1.31 -2.90
542.00 288.00 0.00 1.28 -2.91
543.00 288.00 0.00 1.25 -2.93
544.00 288.00 0.00 1.21 -2.94
545.00 288.00 0.00 1.18 -2.96
546.00 288.00 0.00 1.15 -2.98
547.00 288.00 0.00 1.11 -2.99
548.00 288.00 0.00 1.08 -3.01
549.00 288.00 0.00 1.05 -3.02
550.00 288.00 0.00 1.01 -3.04
551.00 288.00 0.00 0.98 -3.05
552.00 288.00 0.00 0.95 -3.07
553.00 288.00 0.00 0.92 -3.08
554.00 288.00 0.00 0.89 -3.10
555.00 288.00 0.00 0.85 -3.11
556.00 288.00 0.00 0.82 -3.13
557.00 288.00 0.00 0.79 -3.14
558.00 288.00 0.00 0.76 -3.16
559.00 288.00 0.00 0.73 -3.17
560.00 288.00 0.00 0.70 -3.19
561.00 288.00 0.00 0.67 -3.20
562.00 288.00 0.00 0.64 -3.21
563.00 288.00 0.00 0.61 -3.23
564.00 288.00 0.00 0.58 -3.24
565.00 288.00 0.00 0.55 -3.26
566.00 288.00 0.00 0.52 -3.27
567.00 288.00 0.00 0.49 -3.28
568.00 288.00 0.00 0.46 -3.30
569.00 288.00 0.00 0.43 -3.31
570.00 288.00 0.00 0.40 -3.32
571.00 288.00 0.00 0.37 -3.34
572.00 288.00 0.00 0.35 -3.35
573.00 288.00 0.00 0.32 -3.36
574.00 288.00 0.00 0.29 -3.37
575.00 288.00 0.00 0.26 -3.39
576.00 288.00 0.00 0.24 -3.40
577.00 288.00 0.00 0.21 -3.41
578.00 288.00 0.00 0.18 -3.42
579.00 288.00 0.00 0.15 -3.44
580.00 288.00 0.00 0.13 -3.45
581.00 288.00 0.00 0.10 -3.46
582.00 288.00 0.00 0.07 -3.47
583.00 288.00 0.00 0.05 -3.48
584.00 288.00 0.00 0.02 -3.50
585.00 288.00 0.00 -0.00 -3.51
586.00 288.00 0.00 -0.03 -3.52
587.00 288.00 0.00 -0.05 -3.53
588.00 288.00 0.00 -0.08 -3.54
589.00 288.00 0.00 -0.11 -3.55
590.00 288.00 0.00 -0.13 -3.56
591.00 288.00 0.00 -0.15 -3.58
592.00 288.00 0.00 -0.18 -3.59
593.00 288.00 0.00 -0.20 -3.60
594.00 288.00 0.00 -0.23 -3.61
595.00 288.00 0.00 -0.25 -3.62
596.00 288.00 0.00 -0.27 -3.63
597.00 288.00 0.00 -0.30 -3.64
598.00 288.00 0.00 -0.32 -3.65
599.00 288.00 0.00 -0.34 -3.66
600.00 288.00 0.00 -0.37 -3.67
601.00 288.00 0.00 -0.39 -3.68
602.00 288.00 0.00 -0.41 -3.69
603.00 288.00 0.00 -0.43 -3.70
604.00 288.00 0.00 -0.46 -3.71
605.00 288.00 0.00 -0.48 -3.72
606.00 288.00 0.00 -0.50 -3.73
607.00 288.00 0.00 -0.52 -3.74
608.00 288.00 0.00 -0.54 -3.75
609.00 288.00 0.00 -0.56 -3.76
610.00 288.00 0.00 -0.59 -3.77
611.00 288.00 0.00 -0.61 -3.78
612.00 288.00 0.00 -0.63 -3.78
613.00 288.00 0.00 -0.65 -3.79
614.00 288.00 0.00 -0.67 -3.80
615.00 288.00 0.00 -0.69 -3.81
616.00 288.00 0.00 -0.71 -3.82
617.00 288.00 0.00 -0.73 -3.83
618.00 288.00 0.00 -0.75 -3.84
619.00 288.00 0.00 -0.76 -3.84
620.00 288.00 0.00 -0.78 -3.85
621.00 288.00 0.00 -0.80 -3.86
622.00 288.00 0.00 -0.82 -3.87
623.00 288.00 0.00 -0.84 -3.88
624.00 288.00 0.00 -0.86 -3.89
625.00 288.00 0.00 -0.88 -3.89
626.00 288.00 0.00 -0.89 -3.90
627.00 288.00 0.00 -0.91 -3.91
628.00 288.00 0.00 -0.93 -3.92
629.00 288.00 0.00 -0.95 -3.92
630.00 288.00 0.00 -0.96 -3.93
631.00 288.00 0.00 -0.98 -3.94
632.00 288.00 0.00 -1.00 -3.94
633.00 288.00 0.00 -1.01 -3.95
634.00 288.00 0.00 -1.03 -3.96
635.00 288.00 0.00 -1.04 -3.97
636.00 288.00 0.00 -1.06 -3.97
637.00 288.00 0.00 -1.08 -3.98
638.00 288.00 0.00 -1.09 -3.99
639.00 288.00 0.00 -1.11 -3.99
640.00 288.00 0.00 -1.12 -4.00
641.00 288.00 0.00 -1.14 -4.01
642.00 288.00 0.00 -1.15 -4.01
643.00 288.00 0.00 -1.17 -4.02
644.00 288.00 0.00 -1.18 -4.02
645.00 288.00 0.00 -1.19 -4.03
646.00 288.00 0.00 -1.21 -4.04
647.00 288.00 0.00 -1.22 -4.04
648.00 288.00 0.00 -1.24 -4.05
649.00 288.00 0.00 -1.25 -4.05
650.00 288.00 0.00 -1.26 -4.06
651.00 288.00 0.00 -1.27 -4.06
652.00 288.00 0.00 -1.29 -4.07
653.00 288.00 0.00 -1.30 -4.07
654.00 288.00 0.00 -1.31 -4.08
655.00 288.00 0.00 -1.32 -4.08
656.00 288.00 0.00 -1.34 -4.09
657.00 288.00 0.00 -1.35 -4.09
658.00 288.00 0.00 -1.36 -4.10
659.00 288.00 0.00 -1.37 -4.10
660.00 288.00 0.00 -1.38 -4.11
661.00 288.00 0.00 -1.39 -4.11
662.00 288.00 0.00 -1.40 -4.12
663.00 288.00 0.00 -1.41 -4.12
664.00 288.00 0.00 -1.42 -4.13
665.00 288.00 0.00 -1.44 -4.13
666.00 288.00 0.00 -1.45 -4.14
667.00 288.00 0.00 -1.45 -4.14
668.00 288.00 0.00 -1.46 -4.14
669.00 288.00 0.00 -1.47 -4.15
670.00 288.00 0.00 -1.48 -4.15
671.00 288.00 0.00 -1.49 -4.16
672.00 288.00 0.00 -1.50 -4.16
673.00 288.00 0.00 -1.51 -4.16
674.00 288.00 0.00 -1.52 -4.17
675.00 288.00 0.00 -1.53 -4.17
676.00 288.00 0.00 -1.53 -4.17
677.00 288.00 0.00 -1.54 -4.18
678.00 288.00 0.00 -1.55 -4.18
679.00 288.00 0.00 -1.56 -4.18
680.00 288.00 0.00 -1.56 -4.19
681.00 288.00 0.00 -1.57 -4.19
682.00 288.00 0.00 -1.58 -4.19
683.00 288.00 0.00 -1.59 -4.19
684.00 288.00 0.00 -1.59 -4.20
685.00 288.00 0.00 -1.60 -4.20
686.00 288.00 0.00 -1.60 -4.20
687.00 288.00 0.00 -1.61 -4.20
688.00 288.00 0.00 -1.62 -4.21
689.00 288.00 0.00 -1.62 -4.21
690.00 288.00 0.00 -1.63 -4.21
691.00 288.00 0.00 -1.63 -4.21
692.00 288.00 0.00 -1.64 -4.22
693.00 288.00 0.00 -1.64 -4.22
694.00 288.00 0.00 -1.65 -4.22
695.00 288.00 0.00 -1.65 -4.22
696.00 288.00 0.00 -1.65 -4.22
697.00 288.00 0.00 -1.66 -4.22
698.00 288.00 0.00 -1.66 -4.23
699.00 288.00 0.00 -1.67 -4.23
700.00 288.00 0.00 -1.67 -4.23
701.00 288.00 0.00 -1.67 -4.23
702.00 288.00 0.00 -1.68 -4.23
703.00 288.00 0.00 -1.68 -4.23
704.00 288.00 0.00 -1.68 -4.23
705.00 288.00 0.00 -1.68 -4.23
706.00 288.00 0.00 -1.69 -4.24
707.00 288.00 0.00 -1.69 -4.24
708.00 288.00 0.00 -1.69 -4.24
709.00 288.00 0.00 -1.69 -4.24
710.00 288.00 0.00 -1.69 -4.24
711.00 288.00 0.00 -1.69 -4.24
712.00 288.00 0.00 -1.70 -4.24
713.00 288.00 0.00 -1.70 -4.24
714.00 288.00 0.00 -1.70 -4.24
715.00 288.00 0.00 -1.70 -4.24
716.00 288.00 0.00 -1.70 -4.24
717.00 288.00 0.00 -1.70 -4.24
718.00 288.00 0.00 -1.70 -4.24
719.00 288.00 0.00 -1.70 -4.24
720.00 288.00 0.00 -1.70 -4.24
721.00 288.00 0.00 -1.70 -4.24
722.00 288.00 0.00 -1.70 -4.24
723.00 288.00 0.00 -1.70 -4.24
724.00 288.00 0.00 -1.70 -4.24
725.00 288.00 0.00 -1.70 -4.24
726.00 288.00 0.00 -1.70 -4.24
727.00 288.00 0.00 -1.70 -4.24
728.00 288.00 0.00 -1.70 -4.24
729.00 288.00 0.00 -1.70 -4.24
730.00 288.00 0.00 -1.70 -4.24
731.00 288.00 0.00 -1.70 -4.24
732.00 288.00 0.00 -1.70 -4.24
733.00 288.00 0.00 -1.70 -4.24
734.00 288.00 0.00 -1.70 -4.24
735.00 288.00 0.00 -1.70 -4.24
736.00 288.00 0.00 -1.70 -4.24
737.00 288.00 0.00 -1.70 -4.24
738.00 288.00 0.00 -1.70 -4.24
739.00 288.00 0.00 -1.70 -4.24
740.00 288.00 0.00 -1.70 -4.24
741.00 288.00 0.00 -1.70 -4.24
742.00 288.00 0.00 -1.70 -4.24
743.00 288.00 0.00 -1.70 -4.24
744.00 288.00 0.00 -1.70 -4.24
745.00 288.00 0.00 -1.70 -4.24
746.00 288.00 0.00 -1.70 -4.24
747.00 288.00 0.00 -1.70 -4.24
748.00 288.00 0.00 -1.70 -4.24
749.00 288.00 0.00 -1.70 -4.24
750.00 288.00 0.00 -1.70 -4.24
751.00 288.00 0.00 -1.70 -4.24
752.00 288.00 0.00 -1.70 -4.24
753.00 288.00 0.00 -1.70 -4.24
754.00 288.00 0.00 -1.70 -4.24
755.00 288.00 0.00 -1.70 -4.24
756.00 288.00 0.00 -1.70 -4.24
757.00 288.00 0.00 -1.70 -4.24
758.00 288.00 0.00 -1.70 -4.24
759.00 288.00 0.00 -1.70 -4.24
760.00 288.00 0.00 -1.70 -4.24
761.00 288.00 0.00 -1.70 -4.24
762.00 288.00 0.00 -1.70 -4.24
763.00 288.00 0.00 -1.70 -4.24
764.00 288.00 0.00 -1.70 -4.24
765.00 288.00 0.00 -1.70 -4.24
766.00 288.00 0.00 -1.70 -4.24
767.00 288.00 0.00 -1.70 -4.24
768.00 288.00 0.00 -1.70 -4.24
769.00 288.00 0.00 -1.70 -4.24
770.00 288.00 0.00 -1.70 -4.24
771.00 288.00 0.00 -1.70 -4.24
772.00 288.00 0.00 -1.70 -4.24
773.00 288.00 0.00 -1.70 -4.24
774.00 288.00 0.00 -1.70 -4.24
775.00 288.00 0.00 -1.70 -4.24
776.00 288.00 0.00 -1.70 -4.24
777.00 288.00 0.00 -1.70 -4.24
778.00 288.00 0.00 -1.70 -4.24
779.00 288.00 0.00 -1.70 -4.24
780.00 288.00 0.00 -1.70 -4.24
781.00 288.00 0.00 -1.70 -4.24
782.00 288.00 0.00 -1.70 -4.24
783.00 288.00 0.00 -1.70 -4.24
784.00 288.00 0.00 -1.70 -4.24
785.00 288.00 0.00 -1.70 -4.24
786.00 288.00 0.00 -1.70 -4.24
787.00 288.00 0.00 -1.70 -4.24
788.00 288.00 0.00 -1.70 -4.24
789.00 288.00 0.00 -1.70 -4.24
790.00 288.00 0.00 -1.70 -4.24
791.00 288.00 0.00 -1.70 -4.24
792.00 288.00 0.00 -1.70 -4.24
793.00 288.00 0.00 -1.70 -4.24
794.00 288.00 0.00 -1.70 -4.24
795.00 288.00 0.00 -1.70 -4.24
796.00 288.00 0.00 -1.70 -4.24
797.00 288.00 0.00 -1.70 -4.24
798.00 288.00 0.00 -1.70 -4.24
799.00 288.00 0.00 -1.70 -4.24
800.00 288.00 0.00 -1.70 -4.24
801.00 288.00 0.00 -1.70 -4.24
802.00 288.00 0.00 -1.70 -4.24
803.00 288.00 0.00 -1.70 -4.24
804.00 288.00 0.00 -1.70 -4.24
805.00 288.00 0.00 -1.70 -4.24
806.00 288.00 0.00 -1.70 -4.24
807.00 288.00 0.00 -1.70 -4.24
808.00 288.00 0.00 -1.70 -4.24
809.00 288.00 0.00 -1.70 -4.24
810.00 288.00 0.00 -1.70 -4.24
811.00 288.00 0.00 -1.70 -4.24
812.00 288.00 0.00 -1.70 -4.24
813.00 288.00 0.00 -1.70 -4.24
814.00 288.00 0.00 -1.70 -4.24
815.00 288.00 0.00 -1.70 -4.24
816.00 288.00 0.00 -1.70 -4.24
817.00 288.00 0.00 -1.70 -4.24
818.00 288.00 0.00 -1.70 -4.24
819.00 288.00 0.00 -1.70 -4.24
820.00 288.00 0.00 -1.70 -4.24
821.00 288.00 0.00 -1.70 -4.24
822.00 288.00 0.00 -1.70 -4.24
823.00 288.00 0.00 -1.70 -4.24
824.00 288.00 0.00 -1.70 -4.24
825.00 288.00 0.00 -1.70 -4.24
826.00 288.00 0.00 -1.70 -4.24
827.00 288.00 0.00 -1.70 -4.24
828.00 288.00 0.00 -1.70 -4.24
829.00 288.00 0.00 -1.70 -4.24
830.00 288.00 0.00 -1.70 -4.24
831.00 288.00 0.00 -1.70 -4.24
