1000.00 288.00 00.00
0.00 288.00 0.00 2.77 1.29
1.00 288.00 0.00 2.77 1.29
2.00 288.00 0.00 2.77 1.29
3.00 288.00 0.00 2.77 1.29
4.00 288.00 0.00 2.77 1.29
5.00 288.00 0.00 2.77 1.29
6.00 288.00 0.00 2.77 1.29
7.00 288.00 0.00 2.77 1.29
8.00 288.00 0.00 2.77 1.29
9.00 288.00 0.00 2.77 1.29
10.00 288.00 0.00 2.77 1.29
11.00 288.00 0.00 2.77 1.29
12.00 288.00 0.00 2.77 1.29
13.00 288.00 0.00 2.77 1.29
14.00 288.00 0.00 2.77 1.29
15.00 288.00 0.00 2.77 1.29
16.00 288.00 0.00 2.77 1.29
17.00 288.00 0.00 2.77 1.29
18.00 288.00 0.00 2.77 1.29
19.00 288.00 0.00 2.77 1.29
20.00 288.00 0.00 2.77 1.29
21.00 288.00 0.00 2.77 1.29
22.00 288.00 0.00 2.77 1.29
23.00 288.00 0.00 2.77 1.29
24.00 288.00 0.00 2.77 1.29
25.00 288.00 0.00 2.77 1.29
26.00 288.00 0.00 2.77 1.29
27.00 288.00 0.00 2.77 1.29
28.00 288.00 0.00 2.77 1.29
29.00 288.00 0.00 2.77 1.29
30.00 288.00 0.00 2.77 1.29
31.00 288.00 0.00 2.77 1.29
32.00 288.00 0.00 2.77 1.29
33.00 288.00 0.00 2.77 1.29
34.00 288.00 0.00 2.77 1.29
35.00 288.00 0.00 2.77 1.29
36.00 288.00 0.00 2.77 1.29
37.00 288.00 0.00 2.77 1.29
38.00 288.00 0.00 2.77 1.29
39.00 288.00 0.00 2.77 1.29
40.00 288.00 0.00 2.77 1.29
41.00 288.00 0.00 2.77 1.29
42.00 288.00 0.00 2.77 1.29
43.00 288.00 0.00 2.77 1.29
44.00 288.00 0.00 2.77 1.29
45.00 288.00 0.00 2.77 1.29
46.00 288.00 0.00 2.77 1.29
47.00 288.00 0.00 2.77 1.29
48.00 288.00 0.00 2.77 1.29
49.00 288.00 0.00 2.77 1.29
50.00 288.00 0.00 2.77 1.29
51.00 288.00 0.00 2.77 1.29
52.00 288.00 0.00 2.77 1.29
53.00 288.00 0.00 2.77 1.29
54.00 288.00 0.00 2.77 1.29
55.00 288.00 0.00 2.77 1.29
56.00 288.00 0.00 2.77 1.29
57.00 288.00 0.00 2.77 1.29
58.00 288.00 0.00 2.77 1.29
59.00 288.00 0.00 2.77 1.29
60.00 288.00 0.00 2.77 1.29
61.00 288.00 0.00 2.77 1.29
62.00 288.00 0.00 2.77 1.29
63.00 288.00 0.00 2.77 1.29
64.00 288.00 0.00 2.77 1.29
65.00 288.00 0.00 2.77 1.29
66.00 288.00 0.00 2.77 1.29
67.00 288.00 0.00 2.77 1.29
68.00 288.00 0.00 2.77 1.29
69.00 288.00 0.00 2.77 1.29
70.00 288.00 0.00 2.77 1.29
71.00 288.00 0.00 2.77 1.29
72.00 288.00 0.00 2.77 1.29
73.00 288.00 0.00 2.77 1.29
74.00 288.00 0.00 2.77 1.29
75.00 288.00 0.00 2.77 1.29
76.00 288.00 0.00 2.77 1.29
77.00 288.00 0.00 2.77 1.29
78.00 288.00 0.00 2.77 1.29
79.00 288.00 0.00 2.77 1.29
80.00 288.00 0.00 2.77 1.29
81.00 288.00 0.00 2.77 1.29
82.00 288.00 0.00 2.77 1.29
83.00 288.00 0.00 2.77 1.29
84.00 288.00 0.00 2.77 1.29
85.00 288.00 0.00 2.77 1.28
86.00 288.00 0.00 2.77 1.28
87.00 288.00 0.00 2.77 1.28
88.00 288.00 0.00 2.77 1.28
89.00 288.00 0.00 2.77 1.28
90.00 288.00 0.00 2.77 1.28
91.00 288.00 0.00 2.78 1.28
92.00 288.00 0.00 2.78 1.28
93.00 288.00 0.00 2.78 1.28
94.00 288.00 0.00 2.78 1.28
95.00 288.00 0.00 2.78 1.28
96.00 288.00 0.00 2.79 1.28
97.00 288.00 0.00 2.79 1.28
98.00 288.00 0.00 2.79 1.28
99.00 288.00 0.00 2.79 1.28
100.00 288.00 0.00 2.79 1.28
101.00 288.00 0.00 2.80 1.28
102.00 288.00 0.00 2.80 1.28
103.00 288.00 0.00 2.80 1.27
104.00 288.00 0.00 2.81 1.27
105.00 288.00 0.00 2.81 1.27
106.00 288.00 0.00 2.81 1.27
107.00 288.00 0.00 2.82 1.27
108.00 288.00 0.00 2.82 1.27
109.00 288.00 0.00 2.82 1.27
110.00 288.00 0.00 2.83 1.27
111.00 288.00 0.00 2.83 1.27
112.00 288.00 0.00 2.83 1.26
113.00 288.00 0.00 2.84 1.26
114.00 288.00 0.00 2.84 1.26
115.00 288.00 0.00 2.85 1.26
116.00 288.00 0.00 2.85 1.26
117.00 288.00 0.00 2.85 1.26
118.00 288.00 0.00 2.86 1.26
119.00 288.00 0.00 2.86 1.26
120.00 288.00 0.00 2.87 1.25
121.00 288.00 0.00 2.87 1.25
122.00 288.00 0.00 2.88 1.25
123.00 288.00 0.00 2.88 1.25
124.00 288.00 0.00 2.89 1.25
125.00 288.00 0.00 2.89 1.25
126.00 288.00 0.00 2.90 1.24
127.00 288.00 0.00 2.91 1.24
128.00 288.00 0.00 2.91 1.24
129.00 288.00 0.00 2.92 1.24
130.00 288.00 0.00 2.92 1.24
131.00 288.00 0.00 2.93 1.24
132.00 288.00 0.00 2.93 1.23
133.00 288.00 0.00 2.94 1.23
134.00 288.00 0.00 2.95 1.23
135.00 288.00 0.00 2.95 1.23
136.00 288.00 0.00 2.96 1.23
137.00 288.00 0.00 2.97 1.22
138.00 288.00 0.00 2.97 1.22
139.00 288.00 0.00 2.98 1.22
140.00 288.00 0.00 2.99 1.22
141.00 288.00 0.00 2.99 1.22
142.00 288.00 0.00 3.00 1.21
143.00 288.00 0.00 3.01 1.21
144.00 288.00 0.00 3.02 1.21
145.00 288.00 0.00 3.02 1.21
146.00 288.00 0.00 3.03 1.21
147.00 288.00 0.00 3.04 1.20
148.00 288.00 0.00 3.05 1.20
149.00 288.00 0.00 3.05 1.20
150.00 288.00 0.00 3.06 1.20
151.00 288.00 0.00 3.07 1.19
152.00 288.00 0.00 3.08 1.19
153.00 288.00 0.00 3.09 1.19
154.00 288.00 0.00 3.10 1.19
155.00 288.00 0.00 3.10 1.18
156.00 288.00 0.00 3.11 1.18
157.00 288.00 0.00 3.12 1.18
158.00 288.00 0.00 3.13 1.17
159.00 288.00 0.00 3.14 1.17
160.00 288.00 0.00 3.15 1.17
161.00 288.00 0.00 3.16 1.17
162.00 288.00 0.00 3.17 1.16
163.00 288.00 0.00 3.18 1.16
164.00 288.00 0.00 3.19 1.16
165.00 288.00 0.00 3.20 1.15
166.00 288.00 0.00 3.21 1.15
167.00 288.00 0.00 3.22 1.15
168.00 288.00 0.00 3.23 1.15
169.00 288.00 0.00 3.24 1.14
170.00 288.00 0.00 3.25 1.14
171.00 288.00 0.00 3.26 1.14
172.00 288.00 0.00 3.27 1.13
173.00 288.00 0.00 3.28 1.13
174.00 288.00 0.00 3.29 1.13
175.00 288.00 0.00 3.30 1.12
176.00 288.00 0.00 3.31 1.12
177.00 288.00 0.00 3.32 1.12
178.00 288.00 0.00 3.33 1.11
179.00 288.00 0.00 3.35 1.11
180.00 288.00 0.00 3.36 1.11
181.00 288.00 0.00 3.37 1.10
182.00 288.00 0.00 3.38 1.10
183.00 288.00 0.00 3.39 1.10
184.00 288.00 0.00 3.40 1.09
185.00 288.00 0.00 3.42 1.09
186.00 288.00 0.00 3.43 1.08
187.00 288.00 0.00 3.44 1.08
188.00 288.00 0.00 3.45 1.08
189.00 288.00 0.00 3.46 1.07
190.00 288.00 0.00 3.48 1.07
191.00 288.00 0.00 3.49 1.07
192.00 288.00 0.00 3.50 1.06
193.00 288.00 0.00 3.52 1.06
194.00 288.00 0.00 3.53 1.05
195.00 288.00 0.00 3.54 1.05
196.00 288.00 0.00 3.55 1.05
197.00 288.00 0.00 3.57 1.04
198.00 288.00 0.00 3.58 1.04
199.00 288.00 0.00 3.59 1.03
200.00 288.00 0.00 3.61 1.03
201.00 288.00 0.00 3.62 1.03
202.00 288.00 0.00 3.64 1.02
203.00 288.00 0.00 3.65 1.02
204.00 288.00 0.00 3.66 1.01
205.00 288.00 0.00 3.68 1.01
206.00 288.00 0.00 3.69 1.00
207.00 288.00 0.00 3.71 1.00
208.00 288.00 0.00 3.72 1.00
209.00 288.00 0.00 3.74 0.99
210.00 288.00 0.00 3.75 0.99
211.00 288.00 0.00 3.77 0.98
212.00 288.00 0.00 3.78 0.98
213.00 288.00 0.00 3.80 0.97
214.00 288.00 0.00 3.81 0.97
215.00 288.00 0.00 3.83 0.96
216.00 288.00 0.00 3.84 0.96
217.00 288.00 0.00 3.86 0.95
218.00 288.00 0.00 3.87 0.95
219.00 288.00 0.00 3.89 0.94
220.00 288.00 0.00 3.90 0.94
221.00 288.00 0.00 3.92 0.94
222.00 288.00 0.00 3.94 0.93
223.00 288.00 0.00 3.95 0.93
224.00 288.00 0.00 3.97 0.92
225.00 288.00 0.00 3.99 0.92
226.00 288.00 0.00 4.00 0.91
227.00 288.00 0.00 4.02 0.91
228.00 288.00 0.00 4.04 0.90
229.00 288.00 0.00 4.05 0.90
230.00 288.00 0.00 4.07 0.89
231.00 288.00 0.00 4.09 0.88
232.00 288.00 0.00 4.10 0.88
233.00 288.00 0.00 4.12 0.87
234.00 288.00 0.00 4.14 0.87
235.00 288.00 0.00 4.16 0.86
236.00 288.00 0.00 4.17 0.86
237.00 288.00 0.00 4.19 0.85
238.00 288.00 0.00 4.21 0.85
239.00 288.00 0.00 4.23 0.84
240.00 288.00 0.00 4.25 0.84
241.00 288.00 0.00 4.26 0.83
242.00 288.00 0.00 4.28 0.83
243.00 288.00 0.00 4.30 0.82
244.00 288.00 0.00 4.32 0.81
245.00 288.00 0.00 4.34 0.81
246.00 288.00 0.00 4.36 0.80
247.00 288.00 0.00 4.38 0.80
248.00 288.00 0.00 4.39 0.79
249.00 288.00 0.00 4.41 0.79
250.00 288.00 0.00 4.43 0.78
251.00 288.00 0.00 4.45 0.77
252.00 288.00 0.00 4.47 0.77
253.00 288.00 0.00 4.49 0.76
254.00 288.00 0.00 4.51 0.76
255.00 288.00 0.00 4.53 0.75
256.00 288.00 0.00 4.55 0.74
257.00 288.00 0.00 4.57 0.74
258.00 288.00 0.00 4.59 0.73
259.00 288.00 0.00 4.61 0.73
260.00 288.00 0.00 4.63 0.72
261.00 288.00 0.00 4.65 0.71
262.00 288.00 0.00 4.67 0.71
263.00 288.00 0.00 4.69 0.70
264.00 288.00 0.00 4.71 0.70
265.00 288.00 0.00 4.73 0.69
266.00 288.00 0.00 4.75 0.68
267.00 288.00 0.00 4.77 0.68
268.00 288.00 0.00 4.79 0.67
269.00 288.00 0.00 4.81 0.66
270.00 288.00 0.00 4.83 0.66
271.00 288.00 0.00 4.85 0.65
272.00 288.00 0.00 4.87 0.65
273.00 288.00 0.00 4.89 0.64
274.00 288.00 0.00 4.91 0.63
275.00 288.00 0.00 4.93 0.63
276.00 288.00 0.00 4.95 0.62
277.00 288.00 0.00 4.97 0.62
278.00 288.00 0.00 4.99 0.61
279.00 288.00 0.00 5.01 0.60
280.00 288.00 0.00 5.03 0.60
281.00 288.00 0.00 5.05 0.59
282.00 288.00 0.00 5.07 0.59
283.00 288.00 0.00 5.09 0.58
284.00 288.00 0.00 5.11 0.57
285.00 288.00 0.00 5.13 0.57
286.00 288.00 0.00 5.15 0.56
287.00 288.00 0.00 5.17 0.56
288.00 288.00 0.00 5.19 0.55
289.00 288.00 0.00 5.21 0.54
290.00 288.00 0.00 5.23 0.54
291.00 288.00 0.00 5.25 0.53
292.00 288.00 0.00 5.27 0.52
293.00 288.00 0.00 5.29 0.52
294.00 288.00 0.00 5.31 0.51
295.00 288.00 0.00 5.33 0.51
296.00 288.00 0.00 5.35 0.50
297.00 288.00 0.00 5.37 0.49
298.00 288.00 0.00 5.39 0.49
299.00 288.00 0.00 5.41 0.48
300.00 288.00 0.00 5.43 0.48
301.00 288.00 0.00 5.45 0.47
302.00 288.00 0.00 5.47 0.46
303.00 288.00 0.00 5.49 0.46
304.00 288.00 0.00 5.51 0.45
305.00 288.00 0.00 5.53 0.45
306.00 288.00 0.00 5.55 0.44
307.00 288.00 0.00 5.57 0.43
308.00 288.00 0.00 5.59 0.43
309.00 288.00 0.00 5.61 0.42
310.00 288.00 0.00 5.63 0.42
311.00 288.00 0.00 5.65 0.41
312.00 288.00 0.00 5.67 0.40
313.00 288.00 0.00 5.69 0.40
314.00 288.00 0.00 5.71 0.39
315.00 288.00 0.00 5.73 0.38
316.00 288.00 0.00 5.75 0.38
317.00 288.00 0.00 5.77 0.37
318.00 288.00 0.00 5.79 0.37
319.00 288.00 0.00 5.81 0.36
320.00 288.00 0.00 5.83 0.35
321.00 288.00 0.00 5.85 0.35
322.00 288.00 0.00 5.87 0.34
323.00 288.00 0.00 5.89 0.34
324.00 288.00 0.00 5.91 0.33
325.00 288.00 0.00 5.93 0.32
326.00 288.00 0.00 5.95 0.32
327.00 288.00 0.00 5.97 0.31
328.00 288.00 0.00 5.99 0.31
329.00 288.00 0.00 6.01 0.30
330.00 288.00 0.00 6.03 0.29
331.00 288.00 0.00 6.05 0.29
332.00 288.00 0.00 6.07 0.28
333.00 288.00 0.00 6.09 0.27
334.00 288.00 0.00 6.11 0.27
335.00 288.00 0.00 6.13 0.26
336.00 288.00 0.00 6.15 0.26
337.00 288.00 0.00 6.17 0.25
338.00 288.00 0.00 6.19 0.24
339.00 288.00 0.00 6.21 0.24
340.00 288.00 0.00 6.23 0.23
341.00 288.00 0.00 6.25 0.23
342.00 288.00 0.00 6.27 0.22
343.00 288.00 0.00 6.29 0.21
344.00 288.00 0.00 6.31 0.21
345.00 288.00 0.00 6.33 0.20
346.00 288.00 0.00 6.35 0.20
347.00 288.00 0.00 6.37 0.19
348.00 288.00 0.00 6.39 0.18
349.00 288.00 0.00 6.41 0.18
350.00 288.00 0.00 6.43 0.17
351.00 288.00 0.00 6.45 0.16
352.00 288.00 0.00 6.47 0.16
353.00 288.00 0.00 6.49 0.15
354.00 288.00 0.00 6.51 0.15
355.00 288.00 0.00 6.53 0.14
356.00 288.00 0.00 6.55 0.13
357.00 288.00 0.00 6.57 0.13
358.00 288.00 0.00 6.59 0.12
359.00 288.00 0.00 6.61 0.12
360.00 288.00 0.00 6.63 0.11
361.00 288.00 0.00 6.65 0.10
362.00 288.00 0.00 6.67 0.10
363.00 288.00 0.00 6.69 0.09
364.00 288.00 0.00 6.71 0.09
365.00 288.00 0.00 6.73 0.08
366.00 288.00 0.00 6.75 0.07
367.00 288.00 0.00 6.77 0.07
368.00 288.00 0.00 6.79 0.06
369.00 288.00 0.00 6.81 0.05
370.00 288.00 0.00 6.83 0.05
371.00 288.00 0.00 6.85 0.04
372.00 288.00 0.00 6.87 0.04
373.00 288.00 0.00 6.89 0.03
374.00 288.00 0.00 6.91 0.02
375.00 288.00 0.00 6.93 0.02
376.00 288.00 0.00 6.95 0.01
377.00 288.00 0.00 6.97 0.01
378.00 288.00 0.00 6.99 -0.00
379.00 288.00 0.00 7.01 -0.01
380.00 288.00 0.00 7.03 -0.01
381.00 288.00 0.00 7.05 -0.02
382.00 288.00 0.00 7.07 -0.02
383.00 288.00 0.00 7.09 -0.03
384.00 288.00 0.00 7.11 -0.04
385.00 288.00 0.00 7.13 -0.04
386.00 288.00 0.00 7.15 -0.05
387.00 288.00 0.00 7.17 -0.05
388.00 288.00 0.00 7.19 -0.06
389.00 288.00 0.00 7.21 -0.07
390.00 288.00 0.00 7.23 -0.07
391.00 288.00 0.00 7.25 -0.08
392.00 288.00 0.00 7.27 -0.09
393.00 288.00 0.00 7.29 -0.09
394.00 288.00 0.00 7.31 -0.10
395.00 288.00 0.00 7.33 -0.10
396.00 288.00 0.00 7.35 -0.11
397.00 288.00 0.00 7.37 -0.12
398.00 288.00 0.00 7.39 -0.12
399.00 288.00 0.00 7.41 -0.13
400.00 288.00 0.00 7.43 -0.13
401.00 288.00 0.00 7.45 -0.14
402.00 288.00 0.00 7.47 -0.15
403.00 288.00 0.00 7.49 -0.15
404.00 288.00 0.00 7.51 -0.16
405.00 288.00 0.00 7.53 -0.16
406.00 288.00 0.00 7.55 -0.17
407.00 288.00 0.00 7.57 -0.18
408.00 288.00 0.00 7.59 -0.18
409.00 288.00 0.00 7.61 -0.19
410.00 288.00 0.00 7.63 -0.20
411.00 288.00 0.00 7.65 -0.20
412.00 288.00 0.00 7.67 -0.21
413.00 288.00 0.00 7.69 -0.21
414.00 288.00 0.00 7.71 -0.22
415.00 288.00 0.00 7.73 -0.23
416.00 288.00 0.00 7.75 -0.23
417.00 288.00 0.00 7.77 -0.24
418.00 288.00 0.00 7.79 -0.24
419.00 288.00 0.00 7.81 -0.25
420.00 288.00 0.00 7.83 -0.26
421.00 288.00 0.00 7.85 -0.26
422.00 288.00 0.00 7.87 -0.27
423.00 288.00 0.00 7.89 -0.27
424.00 288.00 0.00 7.91 -0.28
425.00 288.00 0.00 7.93 -0.29
426.00 288.00 0.00 7.95 -0.29
427.00 288.00 0.00 7.97 -0.30
428.00 288.00 0.00 7.99 -0.31
429.00 288.00 0.00 8.01 -0.31
430.00 288.00 0.00 8.03 -0.32
431.00 288.00 0.00 8.05 -0.32
432.00 288.00 0.00 8.07 -0.33
433.00 288.00 0.00 8.09 -0.34
434.00 288.00 0.00 8.11 -0.34
435.00 288.00 0.00 8.13 -0.35
436.00 288.00 0.00 8.15 -0.35
437.00 288.00 0.00 8.17 -0.36
438.00 288.00 0.00 8.19 -0.37
439.00 288.00 0.00 8.21 -0.37
440.00 288.00 0.00 8.23 -0.38
441.00 288.00 0.00 8.25 -0.38
442.00 288.00 0.00 8.27 -0.39
443.00 288.00 0.00 8.29 -0.40
444.00 288.00 0.00 8.31 -0.40
445.00 288.00 0.00 8.33 -0.41
446.00 288.00 0.00 8.35 -0.42
447.00 288.00 0.00 8.37 -0.42
448.00 288.00 0.00 8.39 -0.43
449.00 288.00 0.00 8.41 -0.43
450.00 288.00 0.00 8.43 -0.44
451.00 288.00 0.00 8.45 -0.45
452.00 288.00 0.00 8.47 -0.45
453.00 288.00 0.00 8.49 -0.46
454.00 288.00 0.00 8.51 -0.46
455.00 288.00 0.00 8.53 -0.47
456.00 288.00 0.00 8.55 -0.48
457.00 288.00 0.00 8.57 -0.48
458.00 288.00 0.00 8.59 -0.49
459.00 288.00 0.00 8.61 -0.49
460.00 288.00 0.00 8.63 -0.50
461.00 288.00 0.00 8.65 -0.51
462.00 288.00 0.00 8.67 -0.51
463.00 288.00 0.00 8.69 -0.52
464.00 288.00 0.00 8.71 -0.52
465.00 288.00 0.00 8.73 -0.53
466.00 288.00 0.00 8.75 -0.54
467.00 288.00 0.00 8.77 -0.54
468.00 288.00 0.00 8.79 -0.55
469.00 288.00 0.00 8.81 -0.56
470.00 288.00 0.00 8.83 -0.56
471.00 288.00 0.00 8.85 -0.57
472.00 288.00 0.00 8.87 -0.57
473.00 288.00 0.00 8.89 -0.58
474.00 288.00 0.00 8.91 -0.59
475.00 288.00 0.00 8.93 -0.59
476.00 288.00 0.00 8.95 -0.60
477.00 288.00 0.00 8.97 -0.60
478.00 288.00 0.00 8.99 -0.61
479.00 288.00 0.00 9.01 -0.62
480.00 288.00 0.00 9.03 -0.62
481.00 288.00 0.00 9.05 -0.63
482.00 288.00 0.00 9.07 -0.63
483.00 288.00 0.00 9.09 -0.64
484.00 288.00 0.00 9.11 -0.65
485.00 288.00 0.00 9.13 -0.65
486.00 288.00 0.00 9.15 -0.66
487.00 288.00 0.00 9.17 -0.66
488.00 288.00 0.00 9.19 -0.67
489.00 288.00 0.00 9.21 -0.68
490.00 288.00 0.00 9.23 -0.68
491.00 288.00 0.00 9.25 -0.69
492.00 288.00 0.00 9.27 -0.70
493.00 288.00 0.00 9.29 -0.70
494.00 288.00 0.00 9.31 -0.71
495.00 288.00 0.00 9.33 -0.71
496.00 288.00 0.00 9.35 -0.72
497.00 288.00 0.00 9.37 -0.73
498.00 288.00 0.00 9.39 -0.73
499.00 288.00 0.00 9.41 -0.74
500.00 288.00 0.00 9.43 -0.74
501.00 288.00 0.00 9.45 -0.75
502.00 288.00 0.00 9.47 -0.76
503.00 288.00 0.00 9.49 -0.76
504.00 288.00 0.00 9.51 -0.77
505.00 288.00 0.00 9.53 -0.77
506.00 288.00 0.00 9.55 -0.78
507.00 288.00 0.00 9.57 -0.79
508.00 288.00 0.00 9.59 -0.79
509.00 288.00 0.00 9.61 -0.80
510.00 288.00 0.00 9.62 -0.80
511.00 288.00 0.00 9.64 -0.81
512.00 288.00 0.00 9.66 -0.81
513.00 288.00 0.00 9.68 -0.82
514.00 288.00 0.00 9.70 -0.83
515.00 288.00 0.00 9.72 -0.83
516.00 288.00 0.00 9.74 -0.84
517.00 288.00 0.00 9.75 -0.84
518.00 288.00 0.00 9.77 -0.85
519.00 288.00 0.00 9.79 -0.85
520.00 288.00 0.00 9.81 -0.86
521.00 288.00 0.00 9.83 -0.86
522.00 288.00 0.00 9.84 -0.87
523.00 288.00 0.00 9.86 -0.87
524.00 288.00 0.00 9.88 -0.88
525.00 288.00 0.00 9.90 -0.88
526.00 288.00 0.00 9.91 -0.89
527.00 288.00 0.00 9.93 -0.90
528.00 288.00 0.00 9.95 -0.90
529.00 288.00 0.00 9.96 -0.91
530.00 288.00 0.00 9.98 -0.91
531.00 288.00 0.00 10.00 -0.92
532.00 288.00 0.00 10.01 -0.92
533.00 288.00 0.00 10.03 -0.93
534.00 288.00 0.00 10.05 -0.93
535.00 288.00 0.00 10.06 -0.94
536.00 288.00 0.00 10.08 -0.94
537.00 288.00 0.00 10.10 -0.94
538.00 288.00 0.00 10.11 -0.95
539.00 288.00 0.00 10.13 -0.95
540.00 288.00 0.00 10.14 -0.96
541.00 288.00 0.00 10.16 -0.96
542.00 288.00 0.00 10.17 -0.97
543.00 288.00 0.00 10.19 -0.97
544.00 288.00 0.00 10.20 -0.98
545.00 288.00 0.00 10.22 -0.98
546.00 288.00 0.00 10.23 -0.99
547.00 288.00 0.00 10.25 -0.99
548.00 288.00 0.00 10.26 -1.00
549.00 288.00 0.00 10.28 -1.00
550.00 288.00 0.00 10.29 -1.00
551.00 288.00 0.00 10.31 -1.01
552.00 288.00 0.00 10.32 -1.01
553.00 288.00 0.00 10.34 -1.02
554.00 288.00 0.00 10.35 -1.02
555.00 288.00 0.00 10.36 -1.03
556.00 288.00 0.00 10.38 -1.03
557.00 288.00 0.00 10.39 -1.03
558.00 288.00 0.00 10.41 -1.04
559.00 288.00 0.00 10.42 -1.04
560.00 288.00 0.00 10.43 -1.05
561.00 288.00 0.00 10.45 -1.05
562.00 288.00 0.00 10.46 -1.05
563.00 288.00 0.00 10.47 -1.06
564.00 288.00 0.00 10.48 -1.06
565.00 288.00 0.00 10.50 -1.07
566.00 288.00 0.00 10.51 -1.07
567.00 288.00 0.00 10.52 -1.07
568.00 288.00 0.00 10.54 -1.08
569.00 288.00 0.00 10.55 -1.08
570.00 288.00 0.00 10.56 -1.08
571.00 288.00 0.00 10.57 -1.09
572.00 288.00 0.00 10.58 -1.09
573.00 288.00 0.00 10.60 -1.10
574.00 288.00 0.00 10.61 -1.10
575.00 288.00 0.00 10.62 -1.10
576.00 288.00 0.00 10.63 -1.11
577.00 288.00 0.00 10.64 -1.11
578.00 288.00 0.00 10.65 -1.11
579.00 288.00 0.00 10.67 -1.12
580.00 288.00 0.00 10.68 -1.12
581.00 288.00 0.00 10.69 -1.12
582.00 288.00 0.00 10.70 -1.13
583.00 288.00 0.00 10.71 -1.13
584.00 288.00 0.00 10.72 -1.13
585.00 288.00 0.00 10.73 -1.14
586.00 288.00 0.00 10.74 -1.14
587.00 288.00 0.00 10.75 -1.14
588.00 288.00 0.00 10.76 -1.15
589.00 288.00 0.00 10.77 -1.15
590.00 288.00 0.00 10.78 -1.15
591.00 288.00 0.00 10.79 -1.15
592.00 288.00 0.00 10.80 -1.16
593.00 288.00 0.00 10.81 -1.16
594.00 288.00 0.00 10.82 -1.16
595.00 288.00 0.00 10.83 -1.17
596.00 288.00 0.00 10.84 -1.17
597.00 288.00 0.00 10.85 -1.17
598.00 288.00 0.00 10.86 -1.17
599.00 288.00 0.00 10.87 -1.18
600.00 288.00 0.00 10.88 -1.18
601.00 288.00 0.00 10.89 -1.18
602.00 288.00 0.00 10.90 -1.19
603.00 288.00 0.00 10.90 -1.19
604.00 288.00 0.00 10.91 -1.19
605.00 288.00 0.00 10.92 -1.19
606.00 288.00 0.00 10.93 -1.20
607.00 288.00 0.00 10.94 -1.20
608.00 288.00 0.00 10.95 -1.20
609.00 288.00 0.00 10.95 -1.20
610.00 288.00 0.00 10.96 -1.21
611.00 288.00 0.00 10.97 -1.21
612.00 288.00 0.00 10.98 -1.21
613.00 288.00 0.00 10.98 -1.21
614.00 288.00 0.00 10.99 -1.21
615.00 288.00 0.00 11.00 -1.22
616.00 288.00 0.00 11.01 -1.22
617.00 288.00 0.00 11.01 -1.22
618.00 288.00 0.00 11.02 -1.22
619.00 288.00 0.00 11.03 -1.22
620.00 288.00 0.00 11.03 -1.23
621.00 288.00 0.00 11.04 -1.23
622.00 288.00 0.00 11.05 -1.23
623.00 288.00 0.00 11.05 -1.23
624.00 288.00 0.00 11.06 -1.23
625.00 288.00 0.00 11.07 -1.24
626.00 288.00 0.00 11.07 -1.24
627.00 288.00 0.00 11.08 -1.24
628.00 288.00 0.00 11.08 -1.24
629.00 288.00 0.00 11.09 -1.24
630.00 288.00 0.00 11.09 -1.24
631.00 288.00 0.00 11.10 -1.25
632.00 288.00 0.00 11.11 -1.25
633.00 288.00 0.00 11.11 -1.25
634.00 288.00 0.00 11.12 -1.25
635.00 288.00 0.00 11.12 -1.25
636.00 288.00 0.00 11.13 -1.25
637.00 288.00 0.00 11.13 -1.26
638.00 288.00 0.00 11.14 -1.26
639.00 288.00 0.00 11.14 -1.26
640.00 288.00 0.00 11.15 -1.26
641.00 288.00 0.00 11.15 -1.26
642.00 288.00 0.00 11.15 -1.26
643.00 288.00 0.00 11.16 -1.26
644.00 288.00 0.00 11.16 -1.26
645.00 288.00 0.00 11.17 -1.27
646.00 288.00 0.00 11.17 -1.27
647.00 288.00 0.00 11.17 -1.27
648.00 288.00 0.00 11.18 -1.27
649.00 288.00 0.00 11.18 -1.27
650.00 288.00 0.00 11.18 -1.27
651.00 288.00 0.00 11.19 -1.27
652.00 288.00 0.00 11.19 -1.27
653.00 288.00 0.00 11.19 -1.27
654.00 288.00 0.00 11.20 -1.28
655.00 288.00 0.00 11.20 -1.28
656.00 288.00 0.00 11.20 -1.28
657.00 288.00 0.00 11.21 -1.28
658.00 288.00 0.00 11.21 -1.28
659.00 288.00 0.00 11.21 -1.28
660.00 288.00 0.00 11.21 -1.28
661.00 288.00 0.00 11.21 -1.28
662.00 288.00 0.00 11.22 -1.28
663.00 288.00 0.00 11.22 -1.28
664.00 288.00 0.00 11.22 -1.28
665.00 288.00 0.00 11.22 -1.28
666.00 288.00 0.00 11.22 -1.28
667.00 288.00 0.00 11.23 -1.28
668.00 288.00 0.00 11.23 -1.28
669.00 288.00 0.00 11.23 -1.28
670.00 288.00 0.00 11.23 -1.28
671.00 288.00 0.00 11.23 -1.28
672.00 288.00 0.00 11.23 -1.29
673.00 288.00 0.00 11.23 -1.29
674.00 288.00 0.00 11.23 -1.29
675.00 288.00 0.00 11.23 -1.29
676.00 288.00 0.00 11.23 -1.29
677.00 288.00 0.00 11.23 -1.29
678.00 288.00 0.00 11.23 -1.29
679.00 288.00 0.00 11.23 -1.29
680.00 288.00 0.00 11.24 -1.29
681.00 288.00 0.00 11.24 -1.29
682.00 288.00 0.00 11.24 -1.29
683.00 288.00 0.00 11.24 -1.29
684.00 288.00 0.00 11.24 -1.29
685.00 288.00 0.00 11.24 -1.29
686.00 288.00 0.00 11.24 -1.29
687.00 288.00 0.00 11.24 -1.29
688.00 288.00 0.00 11.24 -1.29
689.00 288.00 0.00 11.24 -1.29
690.00 288.00 0.00 11.24 -1.29
691.00 288.00 0.00 11.24 -1.29
692.00 288.00 0.00 11.24 -1.29
693.00 288.00 0.00 11.24 -1.29
694.00 288.00 0.00 11.24 -1.29
695.00 288.00 0.00 11.24 -1.29
696.00 288.00 0.00 11.24 -1.29
697.00 288.00 0.00 11.24 -1.29
698.00 288.00 0.00 11.24 -1.29
699.00 288.00 0.00 11.24 -1.29
700.00 288.00 0.00 11.24 -1.29
701.00 288.00 0.00 11.24 -1.29
702.00 288.00 0.00 11.24 -1.29
703.00 288.00 0.00 11.24 -1.29
704.00 288.00 0.00 11.24 -1.29
705.00 288.00 0.00 11.24 -1.29
706.00 288.00 0.00 11.24 -1.29
707.00 288.00 0.00 11.24 -1.29
708.00 288.00 0.00 11.24 -1.29
709.00 288.00 0.00 11.24 -1.29
710.00 288.00 0.00 11.24 -1.29
711.00 288.00 0.00 11.24 -1.29
712.00 288.00 0.00 11.24 -1.29
713.00 288.00 0.00 11.24 -1.29
714.00 288.00 0.00 11.24 -1.29
715.00 288.00 0.00 11.24 -1.29
716.00 288.00 0.00 11.24 -1.29
717.00 288.00 0.00 11.24 -1.29
718.00 288.00 0.00 11.24 -1.29
719.00 288.00 0.00 11.24 -1.29
720.00 288.00 0.00 11.24 -1.29
721.00 288.00 0.00 11.24 -1.29
722.00 288.00 0.00 11.24 -1.29
723.00 288.00 0.00 11.24 -1.29
724.00 288.00 0.00 11.24 -1.29
725.00 288.00 0.00 11.24 -1.29
726.00 288.00 0.00 11.24 -1.29
727.00 288.00 0.00 11.24 -1.29
728.00 288.00 0.00 11.24 -1.29
729.00 288.00 0.00 11.24 -1.29
730.00 288.00 0.00 11.24 -1.29
731.00 288.00 0.00 11.24 -1.29
732.00 288.00 0.00 11.24 -1.29
733.00 288.00 0.00 11.24 -1.29
734.00 288.00 0.00 11.24 -1.29
735.00 288.00 0.00 11.24 -1.29
736.00 288.00 0.00 11.24 -1.29
737.00 288.00 0.00 11.24 -1.29
738.00 288.00 0.00 11.24 -1.29
739.00 288.00 0.00 11.24 -1.29
740.00 288.00 0.00 11.24 -1.29
741.00 288.00 0.00 11.24 -1.29
742.00 288.00 0.00 11.24 -1.29
743.00 288.00 0.00 11.24 -1.29
744.00 288.00 0.00 11.24 -1.29
745.00 288.00 0.00 11.24 -1.29
746.00 288.00 0.00 11.24 -1.29
747.00 288.00 0.00 11.24 -1.29
748.00 288.00 0.00 11.24 -1.29
749.00 288.00 0.00 11.24 -1.29
750.00 288.00 0.00 11.24 -1.29
751.00 288.00 0.00 11.24 -1.29
752.00 288.00 0.00 11.24 -1.29
753.00 288.00 0.00 11.24 -1.29
754.00 288.00 0.00 11.24 -1.29
755.00 288.00 0.00 11.24 -1.29
756.00 288.00 0.00 11.24 -1.29
757.00 288.00 0.00 11.24 -1.29
758.00 288.00 0.00 11.24 -1.29
759.00 288.00 0.00 11.24 -1.29
760.00 288.00 0.00 11.24 -1.29
761.00 288.00 0.00 11.24 -1.29
762.00 288.00 0.00 11.24 -1.29
763.00 288.00 0.00 11.24 -1.29
764.00 288.00 0.00 11.24 -1.29
765.00 288.00 0.00 11.24 -1.29
766.00 288.00 0.00 11.24 -1.29
767.00 288.00 0.00 11.24 -1.29
768.00 288.00 0.00 11.24 -1.29
769.00 288.00 0.00 11.24 -1.29
770.00 288.00 0.00 11.24 -1.29
771.00 288.00 0.00 11.24 -1.29
772.00 288.00 0.00 11.24 -1.29
773.00 288.00 0.00 11.24 -1.29
774.00 288.00 0.00 11.24 -1.29
775.00 288.00 0.00 11.24 -1.29
776.00 288.00 0.00 11.24 -1.29
777.00 288.00 0.00 11.24 -1.29
778.00 288.00 0.00 11.24 -1.29
779.00 288.00 0.00 11.24 -1.29
780.00 288.00 0.00 11.24 -1.29
781.00 288.00 0.00 11.24 -1.29
782.00 288.00 0.00 11.24 -1.29
783.00 288.00 0.00 11.24 -1.29
784.00 288.00 0.00 11.24 -1.29
785.00 288.00 0.00 11.24 -1.29
786.00 288.00 0.00 11.24 -1.29
787.00 288.00 0.00 11.24 -1.29
788.00 288.00 0.00 11.24 -1.29
789.00 288.00 0.00 11.24 -1.29
790.00 288.00 0.00 11.24 -1.29
791.00 288.00 0.00 11.24 -1.29
792.00 288.00 0.00 11.24 -1.29
793.00 288.00 0.00 11.24 -1.29
794.00 288.00 0.00 11.24 -1.29
795.00 288.00 0.00 11.24 -1.29
796.00 288.00 0.00 11.24 -1.29
797.00 288.00 0.00 11.24 -1.29
798.00 288.00 0.00 11.24 -1.29
799.00 288.00 0.00 11.24 -1.29
800.00 288.00 0.00 11.24 -1.29
801.00 288.00 0.00 11.24 -1.29
802.00 288.00 0.00 11.24 -1.29
803.00 288.00 0.00 11.24 -1.29
804.00 288.00 0.00 11.24 -1.29
805.00 288.00 0.00 11.24 -1.29
806.00 288.00 0.00 11.24 -1.29
807.00 288.00 0.00 11.24 -1.29
808.00 288.00 0.00 11.24 -1.29
809.00 288.00 0.00 11.24 -1.29
810.00 288.00 0.00 11.24 -1.29
811.00 288.00 0.00 11.24 -1.29
812.00 288.00 0.00 11.24 -1.29
813.00 288.00 0.00 11.24 -1.29
814.00 288.00 0.00 11.24 -1.29
815.00 288.00 0.00 11.24 -1.29
816.00 288.00 0.00 11.24 -1.29
817.00 288.00 0.00 11.24 -1.29
818.00 288.00 0.00 11.24 -1.29
819.00 288.00 0.00 11.24 -1.29
820.00 288.00 0.00 11.24 -1.29
821.00 288.00 0.00 11.24 -1.29
822.00 288.00 0.00 11.24 -1.29
823.00 288.00 0.00 11.24 -1.29
824.00 288.00 0.00 11.24 -1.29
825.00 288.00 0.00 11.24 -1.29
826.00 288.00 0.00 11.24 -1.29
827.00 288.00 0.00 11.24 -1.29
828.00 288.00 0.00 11.24 -1.29
829.00 288.00 0.00 11.24 -1.29
830.00 288.00 0.00 11.24 -1.29
831.00 288.00 0.00 11.24 -1.29
