1000.00 288.00 00.00
0.00 288.00 0.00 15.70 -0.30
1.00 288.00 0.00 15.70 -0.30
2.00 288.00 0.00 15.70 -0.30
3.00 288.00 0.00 15.70 -0.30
4.00 288.00 0.00 15.70 -0.30
5.00 288.00 0.00 15.70 -0.30
6.00 288.00 0.00 15.70 -0.30
7.00 288.00 0.00 15.70 -0.30
8.00 288.00 0.00 15.70 -0.30
9.00 288.00 0.00 15.70 -0.30
10.00 288.00 0.00 15.70 -0.30
11.00 288.00 0.00 15.70 -0.30
12.00 288.00 0.00 15.70 -0.30
13.00 288.00 0.00 15.70 -0.30
14.00 288.00 0.00 15.70 -0.30
15.00 288.00 0.00 15.70 -0.30
16.00 288.00 0.00 15.70 -0.30
17.00 288.00 0.00 15.70 -0.30
18.00 288.00 0.00 15.70 -0.30
19.00 288.00 0.00 15.70 -0.30
20.00 288.00 0.00 15.70 -0.30
21.00 288.00 0.00 15.70 -0.30
22.00 288.00 0.00 15.70 -0.30
23.00 288.00 0.00 15.70 -0.30
24.00 288.00 0.00 15.70 -0.30
25.00 288.00 0.00 15.70 -0.30
26.00 288.00 0.00 15.70 -0.30
27.00 288.00 0.00 15.70 -0.30
28.00 288.00 0.00 15.70 -0.30
29.00 288.00 0.00 15.70 -0.30
30.00 288.00 0.00 15.70 -0.30
31.00 288.00 0.00 15.70 -0.30
32.00 288.00 0.00 15.70 -0.30
33.00 288.00 0.00 15.70 -0.30
34.00 288.00 0.00 15.70 -0.30
35.00 288.00 0.00 15.70 -0.30
36.00 288.00 0.00 15.70 -0.30
37.00 288.00 0.00 15.70 -0.30
38.00 288.00 0.00 15.70 -0.30
39.00 288.00 0.00 15.70 -0.30
40.00 288.00 0.00 15.70 -0.30
41.00 288.00 0.00 15.70 -0.30
42.00 288.00 0.00 15.70 -0.30
43.00 288.00 0.00 15.70 -0.30
44.00 288.00 0.00 15.70 -0.30
45.00 288.00 0.00 15.70 -0.30
46.00 288.00 0.00 15.69 -0.30
47.00 288.00 0.00 15.69 -0.30
48.00 288.00 0.00 15.69 -0.30
49.00 288.00 0.00 15.69 -0.30
50.00 288.00 0.00 15.69 -0.30
51.00 288.00 0.00 15.69 -0.30
52.00 288.00 0.00 15.68 -0.30
53.00 288.00 0.00 15.68 -0.30
54.00 288.00 0.00 15.68 -0.30
55.00 288.00 0.00 15.68 -0.30
56.00 288.00 0.00 15.67 -0.30
57.00 288.00 0.00 15.67 -0.30
58.00 288.00 0.00 15.67 -0.30
59.00 288.00 0.00 15.66 -0.30
60.00 288.00 0.00 15.66 -0.30
61.00 288.00 0.00 15.65 -0.30
62.00 288.00 0.00 15.65 -0.30
63.00 288.00 0.00 15.65 -0.30
64.00 288.00 0.00 15.64 -0.30
65.00 288.00 0.00 15.64 -0.30
66.00 288.00 0.00 15.63 -0.30
67.00 288.00 0.00 15.63 -0.30
68.00 288.00 0.00 15.62 -0.30
69.00 288.00 0.00 15.62 -0.30
70.00 288.00 0.00 15.61 -0.30
71.00 288.00 0.00 15.60 -0.30
72.00 288.00 0.00 15.60 -0.30
73.00 288.00 0.00 15.59 -0.30
74.00 288.00 0.00 15.59 -0.30
75.00 288.00 0.00 15.58 -0.30
76.00 288.00 0.00 15.57 -0.30
77.00 288.00 0.00 15.56 -0.30
78.00 288.00 0.00 15.56 -0.30
79.00 288.00 0.00 15.55 -0.30
80.00 288.00 0.00 15.54 -0.30
81.00 288.00 0.00 15.53 -0.30
82.00 288.00 0.00 15.53 -0.30
83.00 288.00 0.00 15.52 -0.30
84.00 288.00 0.00 15.51 -0.30
85.00 288.00 0.00 15.50 -0.30
86.00 288.00 0.00 15.49 -0.30
87.00 288.00 0.00 15.48 -0.30
88.00 288.00 0.00 15.47 -0.30
89.00 288.00 0.00 15.46 -0.30
90.00 288.00 0.00 15.45 -0.29
91.00 288.00 0.00 15.45 -0.29
92.00 288.00 0.00 15.44 -0.29
93.00 288.00 0.00 15.42 -0.29
94.00 288.00 0.00 15.41 -0.29
95.00 288.00 0.00 15.40 -0.29
96.00 288.00 0.00 15.39 -0.29
97.00 288.00 0.00 15.38 -0.29
98.00 288.00 0.00 15.37 -0.29
99.00 288.00 0.00 15.36 -0.29
100.00 288.00 0.00 15.35 -0.29
101.00 288.00 0.00 15.34 -0.29
102.00 288.00 0.00 15.32 -0.29
103.00 288.00 0.00 15.31 -0.29
104.00 288.00 0.00 15.30 -0.29
105.00 288.00 0.00 15.29 -0.29
106.00 288.00 0.00 15.27 -0.29
107.00 288.00 0.00 15.26 -0.29
108.00 288.00 0.00 15.25 -0.29
109.00 288.00 0.00 15.24 -0.29
110.00 288.00 0.00 15.22 -0.29
111.00 288.00 0.00 15.21 -0.29
112.00 288.00 0.00 15.19 -0.29
113.00 288.00 0.00 15.18 -0.29
114.00 288.00 0.00 15.17 -0.28
115.00 288.00 0.00 15.15 -0.28
116.00 288.00 0.00 15.14 -0.28
117.00 288.00 0.00 15.12 -0.28
118.00 288.00 0.00 15.11 -0.28
119.00 288.00 0.00 15.09 -0.28
120.00 288.00 0.00 15.08 -0.28
121.00 288.00 0.00 15.06 -0.28
122.00 288.00 0.00 15.04 -0.28
123.00 288.00 0.00 15.03 -0.28
124.00 288.00 0.00 15.01 -0.28
125.00 288.00 0.00 15.00 -0.28
126.00 288.00 0.00 14.98 -0.28
127.00 288.00 0.00 14.96 -0.28
128.00 288.00 0.00 14.95 -0.28
129.00 288.00 0.00 14.93 -0.28
130.00 288.00 0.00 14.91 -0.28
131.00 288.00 0.00 14.89 -0.28
132.00 288.00 0.00 14.88 -0.27
133.00 288.00 0.00 14.86 -0.27
134.00 288.00 0.00 14.84 -0.27
135.00 288.00 0.00 14.82 -0.27
136.00 288.00 0.00 14.80 -0.27
137.00 288.00 0.00 14.78 -0.27
138.00 288.00 0.00 14.76 -0.27
139.00 288.00 0.00 14.75 -0.27
140.00 288.00 0.00 14.73 -0.27
141.00 288.00 0.00 14.71 -0.27
142.00 288.00 0.00 14.69 -0.27
143.00 288.00 0.00 14.67 -0.27
144.00 288.00 0.00 14.65 -0.27
145.00 288.00 0.00 14.63 -0.27
146.00 288.00 0.00 14.61 -0.27
147.00 288.00 0.00 14.59 -0.26
148.00 288.00 0.00 14.56 -0.26
149.00 288.00 0.00 14.54 -0.26
150.00 288.00 0.00 14.52 -0.26
151.00 288.00 0.00 14.50 -0.26
152.00 288.00 0.00 14.48 -0.26
153.00 288.00 0.00 14.46 -0.26
154.00 288.00 0.00 14.43 -0.26
155.00 288.00 0.00 14.41 -0.26
156.00 288.00 0.00 14.39 -0.26
157.00 288.00 0.00 14.37 -0.26
158.00 288.00 0.00 14.34 -0.26
159.00 288.00 0.00 14.32 -0.26
160.00 288.00 0.00 14.30 -0.25
161.00 288.00 0.00 14.27 -0.25
162.00 288.00 0.00 14.25 -0.25
163.00 288.00 0.00 14.23 -0.25
164.00 288.00 0.00 14.20 -0.25
165.00 288.00 0.00 14.18 -0.25
166.00 288.00 0.00 14.15 -0.25
167.00 288.00 0.00 14.13 -0.25
168.00 288.00 0.00 14.11 -0.25
169.00 288.00 0.00 14.08 -0.25
170.00 288.00 0.00 14.05 -0.25
171.00 288.00 0.00 14.03 -0.24
172.00 288.00 0.00 14.00 -0.24
173.00 288.00 0.00 13.98 -0.24
174.00 288.00 0.00 13.95 -0.24
175.00 288.00 0.00 13.93 -0.24
176.00 288.00 0.00 13.90 -0.24
177.00 288.00 0.00 13.87 -0.24
178.00 288.00 0.00 13.85 -0.24
179.00 288.00 0.00 13.82 -0.24
180.00 288.00 0.00 13.79 -0.24
181.00 288.00 0.00 13.76 -0.24
182.00 288.00 0.00 13.74 -0.23
183.00 288.00 0.00 13.71 -0.23
184.00 288.00 0.00 13.68 -0.23
185.00 288.00 0.00 13.65 -0.23
186.00 288.00 0.00 13.63 -0.23
187.00 288.00 0.00 13.60 -0.23
188.00 288.00 0.00 13.57 -0.23
189.00 288.00 0.00 13.54 -0.23
190.00 288.00 0.00 13.51 -0.23
191.00 288.00 0.00 13.48 -0.23
192.00 288.00 0.00 13.45 -0.22
193.00 288.00 0.00 13.42 -0.22
194.00 288.00 0.00 13.39 -0.22
195.00 288.00 0.00 13.36 -0.22
196.00 288.00 0.00 13.33 -0.22
197.00 288.00 0.00 13.30 -0.22
198.00 288.00 0.00 13.27 -0.22
199.00 288.00 0.00 13.24 -0.22
200.00 288.00 0.00 13.21 -0.22
201.00 288.00 0.00 13.18 -0.22
202.00 288.00 0.00 13.15 -0.21
203.00 288.00 0.00 13.11 -0.21
204.00 288.00 0.00 13.08 -0.21
205.00 288.00 0.00 13.05 -0.21
206.00 288.00 0.00 13.02 -0.21
207.00 288.00 0.00 12.99 -0.21
208.00 288.00 0.00 12.95 -0.21
209.00 288.00 0.00 12.92 -0.21
210.00 288.00 0.00 12.89 -0.20
211.00 288.00 0.00 12.85 -0.20
212.00 288.00 0.00 12.82 -0.20
213.00 288.00 0.00 12.79 -0.20
214.00 288.00 0.00 12.75 -0.20
215.00 288.00 0.00 12.72 -0.20
216.00 288.00 0.00 12.69 -0.20
217.00 288.00 0.00 12.65 -0.20
218.00 288.00 0.00 12.62 -0.20
219.00 288.00 0.00 12.58 -0.19
220.00 288.00 0.00 12.55 -0.19
221.00 288.00 0.00 12.51 -0.19
222.00 288.00 0.00 12.48 -0.19
223.00 288.00 0.00 12.44 -0.19
224.00 288.00 0.00 12.41 -0.19
225.00 288.00 0.00 12.37 -0.19
226.00 288.00 0.00 12.34 -0.19
227.00 288.00 0.00 12.30 -0.18
228.00 288.00 0.00 12.27 -0.18
229.00 288.00 0.00 12.23 -0.18
230.00 288.00 0.00 12.20 -0.18
231.00 288.00 0.00 12.16 -0.18
232.00 288.00 0.00 12.13 -0.18
233.00 288.00 0.00 12.09 -0.18
234.00 288.00 0.00 12.06 -0.18
235.00 288.00 0.00 12.02 -0.17
236.00 288.00 0.00 11.99 -0.17
237.00 288.00 0.00 11.95 -0.17
238.00 288.00 0.00 11.92 -0.17
239.00 288.00 0.00 11.88 -0.17
240.00 288.00 0.00 11.85 -0.17
241.00 288.00 0.00 11.81 -0.17
242.00 288.00 0.00 11.78 -0.17
243.00 288.00 0.00 11.74 -0.16
244.00 288.00 0.00 11.71 -0.16
245.00 288.00 0.00 11.67 -0.16
246.00 288.00 0.00 11.64 -0.16
247.00 288.00 0.00 11.60 -0.16
248.00 288.00 0.00 11.57 -0.16
249.00 288.00 0.00 11.53 -0.16
250.00 288.00 0.00 11.50 -0.16
251.00 288.00 0.00 11.46 -0.16
252.00 288.00 0.00 11.43 -0.15
253.00 288.00 0.00 11.39 -0.15
254.00 288.00 0.00 11.36 -0.15
255.00 288.00 0.00 11.32 -0.15
256.00 288.00 0.00 11.29 -0.15
257.00 288.00 0.00 11.25 -0.15
258.00 288.00 0.00 11.22 -0.15
259.00 288.00 0.00 11.18 -0.15
260.00 288.00 0.00 11.15 -0.14
261.00 288.00 0.00 11.11 -0.14
262.00 288.00 0.00 11.08 -0.14
263.00 288.00 0.00 11.04 -0.14
264.00 288.00 0.00 11.01 -0.14
265.00 288.00 0.00 10.97 -0.14
266.00 288.00 0.00 10.94 -0.14
267.00 288.00 0.00 10.90 -0.14
268.00 288.00 0.00 10.87 -0.13
269.00 288.00 0.00 10.83 -0.13
270.00 288.00 0.00 10.80 -0.13
271.00 288.00 0.00 10.76 -0.13
272.00 288.00 0.00 10.73 -0.13
273.00 288.00 0.00 10.69 -0.13
274.00 288.00 0.00 10.66 -0.13
275.00 288.00 0.00 10.62 -0.13
276.00 288.00 0.00 10.59 -0.12
277.00 288.00 0.00 10.55 -0.12
278.00 288.00 0.00 10.52 -0.12
279.00 288.00 0.00 10.48 -0.12
280.00 288.00 0.00 10.45 -0.12
281.00 288.00 0.00 10.41 -0.12
282.00 288.00 0.00 10.38 -0.12
283.00 288.00 0.00 10.34 -0.12
284.00 288.00 0.00 10.31 -0.11
285.00 288.00 0.00 10.27 -0.11
286.00 288.00 0.00 10.24 -0.11
287.00 288.00 0.00 10.20 -0.11
288.00 288.00 0.00 10.17 -0.11
289.00 288.00 0.00 10.13 -0.11
290.00 288.00 0.00 10.10 -0.11
291.00 288.00 0.00 10.06 -0.11
292.00 288.00 0.00 10.03 -0.11
293.00 288.00 0.00 9.99 -0.10
294.00 288.00 0.00 9.96 -0.10
295.00 288.00 0.00 9.92 -0.10
296.00 288.00 0.00 9.89 -0.10
297.00 288.00 0.00 9.85 -0.10
298.00 288.00 0.00 9.82 -0.10
299.00 288.00 0.00 9.78 -0.10
300.00 288.00 0.00 9.75 -0.10
301.00 288.00 0.00 9.71 -0.09
302.00 288.00 0.00 9.68 -0.09
303.00 288.00 0.00 9.64 -0.09
304.00 288.00 0.00 9.61 -0.09
305.00 288.00 0.00 9.57 -0.09
306.00 288.00 0.00 9.54 -0.09
307.00 288.00 0.00 9.50 -0.09
308.00 288.00 0.00 9.47 -0.09
309.00 288.00 0.00 9.43 -0.08
310.00 288.00 0.00 9.40 -0.08
311.00 288.00 0.00 9.36 -0.08
312.00 288.00 0.00 9.33 -0.08
313.00 288.00 0.00 9.29 -0.08
314.00 288.00 0.00 9.26 -0.08
315.00 288.00 0.00 9.22 -0.08
316.00 288.00 0.00 9.19 -0.08
317.00 288.00 0.00 9.15 -0.07
318.00 288.00 0.00 9.12 -0.07
319.00 288.00 0.00 9.08 -0.07
320.00 288.00 0.00 9.05 -0.07
321.00 288.00 0.00 9.01 -0.07
322.00 288.00 0.00 8.98 -0.07
323.00 288.00 0.00 8.94 -0.07
324.00 288.00 0.00 8.91 -0.07
325.00 288.00 0.00 8.87 -0.06
326.00 288.00 0.00 8.84 -0.06
327.00 288.00 0.00 8.80 -0.06
328.00 288.00 0.00 8.77 -0.06
329.00 288.00 0.00 8.73 -0.06
330.00 288.00 0.00 8.70 -0.06
331.00 288.00 0.00 8.66 -0.06
332.00 288.00 0.00 8.63 -0.06
333.00 288.00 0.00 8.59 -0.05
334.00 288.00 0.00 8.56 -0.05
335.00 288.00 0.00 8.52 -0.05
336.00 288.00 0.00 8.49 -0.05
337.00 288.00 0.00 8.45 -0.05
338.00 288.00 0.00 8.42 -0.05
339.00 288.00 0.00 8.38 -0.05
340.00 288.00 0.00 8.35 -0.05
341.00 288.00 0.00 8.31 -0.05
342.00 288.00 0.00 8.28 -0.04
343.00 288.00 0.00 8.24 -0.04
344.00 288.00 0.00 8.21 -0.04
345.00 288.00 0.00 8.17 -0.04
346.00 288.00 0.00 8.14 -0.04
347.00 288.00 0.00 8.10 -0.04
348.00 288.00 0.00 8.07 -0.04
349.00 288.00 0.00 8.03 -0.04
350.00 288.00 0.00 8.00 -0.03
351.00 288.00 0.00 7.96 -0.03
352.00 288.00 0.00 7.93 -0.03
353.00 288.00 0.00 7.89 -0.03
354.00 288.00 0.00 7.86 -0.03
355.00 288.00 0.00 7.82 -0.03
356.00 288.00 0.00 7.79 -0.03
357.00 288.00 0.00 7.75 -0.03
358.00 288.00 0.00 7.72 -0.02
359.00 288.00 0.00 7.68 -0.02
360.00 288.00 0.00 7.65 -0.02
361.00 288.00 0.00 7.61 -0.02
362.00 288.00 0.00 7.58 -0.02
363.00 288.00 0.00 7.54 -0.02
364.00 288.00 0.00 7.51 -0.02
365.00 288.00 0.00 7.47 -0.02
366.00 288.00 0.00 7.44 -0.01
367.00 288.00 0.00 7.40 -0.01
368.00 288.00 0.00 7.37 -0.01
369.00 288.00 0.00 7.33 -0.01
370.00 288.00 0.00 7.30 -0.01
371.00 288.00 0.00 7.26 -0.01
372.00 288.00 0.00 7.23 -0.01
373.00 288.00 0.00 7.19 -0.01
374.00 288.00 0.00 7.16 -0.00
375.00 288.00 0.00 7.12 -0.00
376.00 288.00 0.00 7.09 -0.00
377.00 288.00 0.00 7.05 -0.00
378.00 288.00 0.00 7.02 0.00
379.00 288.00 0.00 6.98 0.00
380.00 288.00 0.00 6.95 0.00
381.00 288.00 0.00 6.91 0.00
382.00 288.00 0.00 6.88 0.00
383.00 288.00 0.00 6.84 0.01
384.00 288.00 0.00 6.81 0.01
385.00 288.00 0.00 6.77 0.01
386.00 288.00 0.00 6.74 0.01
387.00 288.00 0.00 6.70 0.01
388.00 288.00 0.00 6.67 0.01
389.00 288.00 0.00 6.63 0.01
390.00 288.00 0.00 6.60 0.01
391.00 288.00 0.00 6.56 0.02
392.00 288.00 0.00 6.53 0.02
393.00 288.00 0.00 6.49 0.02
394.00 288.00 0.00 6.46 0.02
395.00 288.00 0.00 6.42 0.02
396.00 288.00 0.00 6.39 0.02
397.00 288.00 0.00 6.35 0.02
398.00 288.00 0.00 6.32 0.02
399.00 288.00 0.00 6.28 0.03
400.00 288.00 0.00 6.25 0.03
401.00 288.00 0.00 6.21 0.03
402.00 288.00 0.00 6.18 0.03
403.00 288.00 0.00 6.14 0.03
404.00 288.00 0.00 6.11 0.03
405.00 288.00 0.00 6.07 0.03
406.00 288.00 0.00 6.04 0.03
407.00 288.00 0.00 6.00 0.04
408.00 288.00 0.00 5.97 0.04
409.00 288.00 0.00 5.93 0.04
410.00 288.00 0.00 5.90 0.04
411.00 288.00 0.00 5.86 0.04
412.00 288.00 0.00 5.83 0.04
413.00 288.00 0.00 5.79 0.04
414.00 288.00 0.00 5.76 0.04
415.00 288.00 0.00 5.72 0.05
416.00 288.00 0.00 5.69 0.05
417.00 288.00 0.00 5.65 0.05
418.00 288.00 0.00 5.62 0.05
419.00 288.00 0.00 5.58 0.05
420.00 288.00 0.00 5.55 0.05
421.00 288.00 0.00 5.51 0.05
422.00 288.00 0.00 5.48 0.05
423.00 288.00 0.00 5.44 0.05
424.00 288.00 0.00 5.41 0.06
425.00 288.00 0.00 5.37 0.06
426.00 288.00 0.00 5.34 0.06
427.00 288.00 0.00 5.30 0.06
428.00 288.00 0.00 5.27 0.06
429.00 288.00 0.00 5.23 0.06
430.00 288.00 0.00 5.20 0.06
431.00 288.00 0.00 5.16 0.06
432.00 288.00 0.00 5.13 0.07
433.00 288.00 0.00 5.09 0.07
434.00 288.00 0.00 5.06 0.07
435.00 288.00 0.00 5.02 0.07
436.00 288.00 0.00 4.99 0.07
437.00 288.00 0.00 4.95 0.07
438.00 288.00 0.00 4.92 0.07
439.00 288.00 0.00 4.88 0.07
440.00 288.00 0.00 4.85 0.08
441.00 288.00 0.00 4.81 0.08
442.00 288.00 0.00 4.78 0.08
443.00 288.00 0.00 4.74 0.08
444.00 288.00 0.00 4.71 0.08
445.00 288.00 0.00 4.67 0.08
446.00 288.00 0.00 4.64 0.08
447.00 288.00 0.00 4.60 0.08
448.00 288.00 0.00 4.57 0.09
449.00 288.00 0.00 4.53 0.09
450.00 288.00 0.00 4.50 0.09
451.00 288.00 0.00 4.46 0.09
452.00 288.00 0.00 4.43 0.09
453.00 288.00 0.00 4.39 0.09
454.00 288.00 0.00 4.36 0.09
455.00 288.00 0.00 4.32 0.09
456.00 288.00 0.00 4.29 0.10
457.00 288.00 0.00 4.25 0.10
458.00 288.00 0.00 4.22 0.10
459.00 288.00 0.00 4.18 0.10
460.00 288.00 0.00 4.15 0.10
461.00 288.00 0.00 4.11 0.10
462.00 288.00 0.00 4.08 0.10
463.00 288.00 0.00 4.04 0.10
464.00 288.00 0.00 4.01 0.11
465.00 288.00 0.00 3.97 0.11
466.00 288.00 0.00 3.94 0.11
467.00 288.00 0.00 3.90 0.11
468.00 288.00 0.00 3.87 0.11
469.00 288.00 0.00 3.83 0.11
470.00 288.00 0.00 3.80 0.11
471.00 288.00 0.00 3.76 0.11
472.00 288.00 0.00 3.73 0.11
473.00 288.00 0.00 3.69 0.12
474.00 288.00 0.00 3.66 0.12
475.00 288.00 0.00 3.62 0.12
476.00 288.00 0.00 3.59 0.12
477.00 288.00 0.00 3.55 0.12
478.00 288.00 0.00 3.52 0.12
479.00 288.00 0.00 3.48 0.12
480.00 288.00 0.00 3.45 0.12
481.00 288.00 0.00 3.41 0.13
482.00 288.00 0.00 3.38 0.13
483.00 288.00 0.00 3.34 0.13
484.00 288.00 0.00 3.31 0.13
485.00 288.00 0.00 3.27 0.13
486.00 288.00 0.00 3.24 0.13
487.00 288.00 0.00 3.20 0.13
488.00 288.00 0.00 3.17 0.13
489.00 288.00 0.00 3.13 0.14
490.00 288.00 0.00 3.10 0.14
491.00 288.00 0.00 3.06 0.14
492.00 288.00 0.00 3.03 0.14
493.00 288.00 0.00 2.99 0.14
494.00 288.00 0.00 2.96 0.14
495.00 288.00 0.00 2.92 0.14
496.00 288.00 0.00 2.89 0.14
497.00 288.00 0.00 2.85 0.15
498.00 288.00 0.00 2.82 0.15
499.00 288.00 0.00 2.78 0.15
500.00 288.00 0.00 2.75 0.15
501.00 288.00 0.00 2.71 0.15
502.00 288.00 0.00 2.68 0.15
503.00 288.00 0.00 2.64 0.15
504.00 288.00 0.00 2.61 0.15
505.00 288.00 0.00 2.57 0.16
506.00 288.00 0.00 2.54 0.16
507.00 288.00 0.00 2.50 0.16
508.00 288.00 0.00 2.47 0.16
509.00 288.00 0.00 2.43 0.16
510.00 288.00 0.00 2.40 0.16
511.00 288.00 0.00 2.36 0.16
512.00 288.00 0.00 2.33 0.16
513.00 288.00 0.00 2.29 0.16
514.00 288.00 0.00 2.26 0.17
515.00 288.00 0.00 2.22 0.17
516.00 288.00 0.00 2.19 0.17
517.00 288.00 0.00 2.15 0.17
518.00 288.00 0.00 2.12 0.17
519.00 288.00 0.00 2.08 0.17
520.00 288.00 0.00 2.05 0.17
521.00 288.00 0.00 2.01 0.17
522.00 288.00 0.00 1.98 0.18
523.00 288.00 0.00 1.94 0.18
524.00 288.00 0.00 1.91 0.18
525.00 288.00 0.00 1.87 0.18
526.00 288.00 0.00 1.84 0.18
527.00 288.00 0.00 1.80 0.18
528.00 288.00 0.00 1.77 0.18
529.00 288.00 0.00 1.73 0.18
530.00 288.00 0.00 1.70 0.19
531.00 288.00 0.00 1.66 0.19
532.00 288.00 0.00 1.63 0.19
533.00 288.00 0.00 1.59 0.19
534.00 288.00 0.00 1.56 0.19
535.00 288.00 0.00 1.52 0.19
536.00 288.00 0.00 1.49 0.19
537.00 288.00 0.00 1.45 0.19
538.00 288.00 0.00 1.42 0.20
539.00 288.00 0.00 1.38 0.20
540.00 288.00 0.00 1.35 0.20
541.00 288.00 0.00 1.31 0.20
542.00 288.00 0.00 1.28 0.20
543.00 288.00 0.00 1.25 0.20
544.00 288.00 0.00 1.21 0.20
545.00 288.00 0.00 1.18 0.20
546.00 288.00 0.00 1.15 0.20
547.00 288.00 0.00 1.11 0.21
548.00 288.00 0.00 1.08 0.21
549.00 288.00 0.00 1.05 0.21
550.00 288.00 0.00 1.01 0.21
551.00 288.00 0.00 0.98 0.21
552.00 288.00 0.00 0.95 0.21
553.00 288.00 0.00 0.92 0.21
554.00 288.00 0.00 0.89 0.21
555.00 288.00 0.00 0.85 0.22
556.00 288.00 0.00 0.82 0.22
557.00 288.00 0.00 0.79 0.22
558.00 288.00 0.00 0.76 0.22
559.00 288.00 0.00 0.73 0.22
560.00 288.00 0.00 0.70 0.22
561.00 288.00 0.00 0.67 0.22
562.00 288.00 0.00 0.64 0.22
563.00 288.00 0.00 0.61 0.22
564.00 288.00 0.00 0.58 0.22
565.00 288.00 0.00 0.55 0.23
566.00 288.00 0.00 0.52 0.23
567.00 288.00 0.00 0.49 0.23
568.00 288.00 0.00 0.46 0.23
569.00 288.00 0.00 0.43 0.23
570.00 288.00 0.00 0.40 0.23
571.00 288.00 0.00 0.37 0.23
572.00 288.00 0.00 0.35 0.23
573.00 288.00 0.00 0.32 0.23
574.00 288.00 0.00 0.29 0.23
575.00 288.00 0.00 0.26 0.24
576.00 288.00 0.00 0.24 0.24
577.00 288.00 0.00 0.21 0.24
578.00 288.00 0.00 0.18 0.24
579.00 288.00 0.00 0.15 0.24
580.00 288.00 0.00 0.13 0.24
581.00 288.00 0.00 0.10 0.24
582.00 288.00 0.00 0.07 0.24
583.00 288.00 0.00 0.05 0.24
584.00 288.00 0.00 0.02 0.24
585.00 288.00 0.00 -0.00 0.24
586.00 288.00 0.00 -0.03 0.25
587.00 288.00 0.00 -0.05 0.25
588.00 288.00 0.00 -0.08 0.25
589.00 288.00 0.00 -0.11 0.25
590.00 288.00 0.00 -0.13 0.25
591.00 288.00 0.00 -0.15 0.25
592.00 288.00 0.00 -0.18 0.25
593.00 288.00 0.00 -0.20 0.25
594.00 288.00 0.00 -0.23 0.25
595.00 288.00 0.00 -0.25 0.25
596.00 288.00 0.00 -0.27 0.25
597.00 288.00 0.00 -0.30 0.26
598.00 288.00 0.00 -0.32 0.26
599.00 288.00 0.00 -0.34 0.26
600.00 288.00 0.00 -0.37 0.26
601.00 288.00 0.00 -0.39 0.26
602.00 288.00 0.00 -0.41 0.26
603.00 288.00 0.00 -0.43 0.26
604.00 288.00 0.00 -0.46 0.26
605.00 288.00 0.00 -0.48 0.26
606.00 288.00 0.00 -0.50 0.26
607.00 288.00 0.00 -0.52 0.26
608.00 288.00 0.00 -0.54 0.26
609.00 288.00 0.00 -0.56 0.26
610.00 288.00 0.00 -0.59 0.27
611.00 288.00 0.00 -0.61 0.27
612.00 288.00 0.00 -0.63 0.27
613.00 288.00 0.00 -0.65 0.27
614.00 288.00 0.00 -0.67 0.27
615.00 288.00 0.00 -0.69 0.27
616.00 288.00 0.00 -0.71 0.27
617.00 288.00 0.00 -0.73 0.27
618.00 288.00 0.00 -0.75 0.27
619.00 288.00 0.00 -0.76 0.27
620.00 288.00 0.00 -0.78 0.27
621.00 288.00 0.00 -0.80 0.27
622.00 288.00 0.00 -0.82 0.27
623.00 288.00 0.00 -0.84 0.27
624.00 288.00 0.00 -0.86 0.27
625.00 288.00 0.00 -0.88 0.28
626.00 288.00 0.00 -0.89 0.28
627.00 288.00 0.00 -0.91 0.28
628.00 288.00 0.00 -0.93 0.28
629.00 288.00 0.00 -0.95 0.28
630.00 288.00 0.00 -0.96 0.28
631.00 288.00 0.00 -0.98 0.28
632.00 288.00 0.00 -1.00 0.28
633.00 288.00 0.00 -1.01 0.28
634.00 288.00 0.00 -1.03 0.28
635.00 288.00 0.00 -1.04 0.28
636.00 288.00 0.00 -1.06 0.28
637.00 288.00 0.00 -1.08 0.28
638.00 288.00 0.00 -1.09 0.28
639.00 288.00 0.00 -1.11 0.28
640.00 288.00 0.00 -1.12 0.28
641.00 288.00 0.00 -1.14 0.28
642.00 288.00 0.00 -1.15 0.28
643.00 288.00 0.00 -1.17 0.29
644.00 288.00 0.00 -1.18 0.29
645.00 288.00 0.00 -1.19 0.29
646.00 288.00 0.00 -1.21 0.29
647.00 288.00 0.00 -1.22 0.29
648.00 288.00 0.00 -1.24 0.29
649.00 288.00 0.00 -1.25 0.29
650.00 288.00 0.00 -1.26 0.29
651.00 288.00 0.00 -1.27 0.29
652.00 288.00 0.00 -1.29 0.29
653.00 288.00 0.00 -1.30 0.29
654.00 288.00 0.00 -1.31 0.29
655.00 288.00 0.00 -1.32 0.29
656.00 288.00 0.00 -1.34 0.29
657.00 288.00 0.00 -1.35 0.29
658.00 288.00 0.00 -1.36 0.29
659.00 288.00 0.00 -1.37 0.29
660.00 288.00 0.00 -1.38 0.29
661.00 288.00 0.00 -1.39 0.29
662.00 288.00 0.00 -1.40 0.29
663.00 288.00 0.00 -1.41 0.29
664.00 288.00 0.00 -1.42 0.29
665.00 288.00 0.00 -1.44 0.29
666.00 288.00 0.00 -1.45 0.29
667.00 288.00 0.00 -1.45 0.30
668.00 288.00 0.00 -1.46 0.30
669.00 288.00 0.00 -1.47 0.30
670.00 288.00 0.00 -1.48 0.30
671.00 288.00 0.00 -1.49 0.30
672.00 288.00 0.00 -1.50 0.30
673.00 288.00 0.00 -1.51 0.30
674.00 288.00 0.00 -1.52 0.30
675.00 288.00 0.00 -1.53 0.30
676.00 288.00 0.00 -1.53 0.30
677.00 288.00 0.00 -1.54 0.30
678.00 288.00 0.00 -1.55 0.30
679.00 288.00 0.00 -1.56 0.30
680.00 288.00 0.00 -1.56 0.30
681.00 288.00 0.00 -1.57 0.30
682.00 288.00 0.00 -1.58 0.30
683.00 288.00 0.00 -1.59 0.30
684.00 288.00 0.00 -1.59 0.30
685.00 288.00 0.00 -1.60 0.30
686.00 288.00 0.00 -1.60 0.30
687.00 288.00 0.00 -1.61 0.30
688.00 288.00 0.00 -1.62 0.30
689.00 288.00 0.00 -1.62 0.30
690.00 288.00 0.00 -1.63 0.30
691.00 288.00 0.00 -1.63 0.30
692.00 288.00 0.00 -1.64 0.30
693.00 288.00 0.00 -1.64 0.30
694.00 288.00 0.00 -1.65 0.30
695.00 288.00 0.00 -1.65 0.30
696.00 288.00 0.00 -1.65 0.30
697.00 288.00 0.00 -1.66 0.30
698.00 288.00 0.00 -1.66 0.30
699.00 288.00 0.00 -1.67 0.30
700.00 288.00 0.00 -1.67 0.30
701.00 288.00 0.00 -1.67 0.30
702.00 288.00 0.00 -1.68 0.30
703.00 288.00 0.00 -1.68 0.30
704.00 288.00 0.00 -1.68 0.30
705.00 288.00 0.00 -1.68 0.30
706.00 288.00 0.00 -1.69 0.30
707.00 288.00 0.00 -1.69 0.30
708.00 288.00 0.00 -1.69 0.30
709.00 288.00 0.00 -1.69 0.30
710.00 288.00 0.00 -1.69 0.30
711.00 288.00 0.00 -1.69 0.30
712.00 288.00 0.00 -1.70 0.30
713.00 288.00 0.00 -1.70 0.30
714.00 288.00 0.00 -1.70 0.30
715.00 288.00 0.00 -1.70 0.30
716.00 288.00 0.00 -1.70 0.30
717.00 288.00 0.00 -1.70 0.30
718.00 288.00 0.00 -1.70 0.30
719.00 288.00 0.00 -1.70 0.30
720.00 288.00 0.00 -1.70 0.30
721.00 288.00 0.00 -1.70 0.30
722.00 288.00 0.00 -1.70 0.30
723.00 288.00 0.00 -1.70 0.30
724.00 288.00 0.00 -1.70 0.30
725.00 288.00 0.00 -1.70 0.30
726.00 288.00 0.00 -1.70 0.30
727.00 288.00 0.00 -1.70 0.30
728.00 288.00 0.00 -1.70 0.30
729.00 288.00 0.00 -1.70 0.30
730.00 288.00 0.00 -1.70 0.30
731.00 288.00 0.00 -1.70 0.30
732.00 288.00 0.00 -1.70 0.30
733.00 288.00 0.00 -1.70 0.30
734.00 288.00 0.00 -1.70 0.30
735.00 288.00 0.00 -1.70 0.30
736.00 288.00 0.00 -1.70 0.30
737.00 288.00 0.00 -1.70 0.30
738.00 288.00 0.00 -1.70 0.30
739.00 288.00 0.00 -1.70 0.30
740.00 288.00 0.00 -1.70 0.30
741.00 288.00 0.00 -1.70 0.30
742.00 288.00 0.00 -1.70 0.30
743.00 288.00 0.00 -1.70 0.30
744.00 288.00 0.00 -1.70 0.30
745.00 288.00 0.00 -1.70 0.30
746.00 288.00 0.00 -1.70 0.30
747.00 288.00 0.00 -1.70 0.30
748.00 288.00 0.00 -1.70 0.30
749.00 288.00 0.00 -1.70 0.30
750.00 288.00 0.00 -1.70 0.30
751.00 288.00 0.00 -1.70 0.30
752.00 288.00 0.00 -1.70 0.30
753.00 288.00 0.00 -1.70 0.30
754.00 288.00 0.00 -1.70 0.30
755.00 288.00 0.00 -1.70 0.30
756.00 288.00 0.00 -1.70 0.30
757.00 288.00 0.00 -1.70 0.30
758.00 288.00 0.00 -1.70 0.30
759.00 288.00 0.00 -1.70 0.30
760.00 288.00 0.00 -1.70 0.30
761.00 288.00 0.00 -1.70 0.30
762.00 288.00 0.00 -1.70 0.30
763.00 288.00 0.00 -1.70 0.30
764.00 288.00 0.00 -1.70 0.30
765.00 288.00 0.00 -1.70 0.30
766.00 288.00 0.00 -1.70 0.30
767.00 288.00 0.00 -1.70 0.30
768.00 288.00 0.00 -1.70 0.30
769.00 288.00 0.00 -1.70 0.30
770.00 288.00 0.00 -1.70 0.30
771.00 288.00 0.00 -1.70 0.30
772.00 288.00 0.00 -1.70 0.30
773.00 288.00 0.00 -1.70 0.30
774.00 288.00 0.00 -1.70 0.30
775.00 288.00 0.00 -1.70 0.30
776.00 288.00 0.00 -1.70 0.30
777.00 288.00 0.00 -1.70 0.30
778.00 288.00 0.00 -1.70 0.30
779.00 288.00 0.00 -1.70 0.30
780.00 288.00 0.00 -1.70 0.30
781.00 288.00 0.00 -1.70 0.30
782.00 288.00 0.00 -1.70 0.30
783.00 288.00 0.00 -1.70 0.30
784.00 288.00 0.00 -1.70 0.30
785.00 288.00 0.00 -1.70 0.30
786.00 288.00 0.00 -1.70 0.30
787.00 288.00 0.00 -1.70 0.30
788.00 288.00 0.00 -1.70 0.30
789.00 288.00 0.00 -1.70 0.30
790.00 288.00 0.00 -1.70 0.30
791.00 288.00 0.00 -1.70 0.30
792.00 288.00 0.00 -1.70 0.30
793.00 288.00 0.00 -1.70 0.30
794.00 288.00 0.00 -1.70 0.30
795.00 288.00 0.00 -1.70 0.30
796.00 288.00 0.00 -1.70 0.30
797.00 288.00 0.00 -1.70 0.30
798.00 288.00 0.00 -1.70 0.30
799.00 288.00 0.00 -1.70 0.30
800.00 288.00 0.00 -1.70 0.30
801.00 288.00 0.00 -1.70 0.30
802.00 288.00 0.00 -1.70 0.30
803.00 288.00 0.00 -1.70 0.30
804.00 288.00 0.00 -1.70 0.30
805.00 288.00 0.00 -1.70 0.30
806.00 288.00 0.00 -1.70 0.30
807.00 288.00 0.00 -1.70 0.30
808.00 288.00 0.00 -1.70 0.30
809.00 288.00 0.00 -1.70 0.30
810.00 288.00 0.00 -1.70 0.30
811.00 288.00 0.00 -1.70 0.30
812.00 288.00 0.00 -1.70 0.30
813.00 288.00 0.00 -1.70 0.30
814.00 288.00 0.00 -1.70 0.30
815.00 288.00 0.00 -1.70 0.30
816.00 288.00 0.00 -1.70 0.30
817.00 288.00 0.00 -1.70 0.30
818.00 288.00 0.00 -1.70 0.30
819.00 288.00 0.00 -1.70 0.30
820.00 288.00 0.00 -1.70 0.30
821.00 288.00 0.00 -1.70 0.30
822.00 288.00 0.00 -1.70 0.30
823.00 288.00 0.00 -1.70 0.30
824.00 288.00 0.00 -1.70 0.30
825.00 288.00 0.00 -1.70 0.30
826.00 288.00 0.00 -1.70 0.30
827.00 288.00 0.00 -1.70 0.30
828.00 288.00 0.00 -1.70 0.30
829.00 288.00 0.00 -1.70 0.30
830.00 288.00 0.00 -1.70 0.30
831.00 288.00 0.00 -1.70 0.30
