1000.00 288.00 00.00
0.00 288.00 0.00 5.25 4.84
1.00 288.00 0.00 5.25 4.84
2.00 288.00 0.00 5.25 4.84
3.00 288.00 0.00 5.25 4.84
4.00 288.00 0.00 5.25 4.84
5.00 288.00 0.00 5.25 4.84
6.00 288.00 0.00 5.25 4.84
7.00 288.00 0.00 5.25 4.84
8.00 288.00 0.00 5.25 4.84
9.00 288.00 0.00 5.25 4.84
10.00 288.00 0.00 5.25 4.84
11.00 288.00 0.00 5.25 4.84
12.00 288.00 0.00 5.25 4.84
13.00 288.00 0.00 5.25 4.84
14.00 288.00 0.00 5.25 4.84
15.00 288.00 0.00 5.25 4.84
16.00 288.00 0.00 5.25 4.84
17.00 288.00 0.00 5.25 4.84
18.00 288.00 0.00 5.25 4.84
19.00 288.00 0.00 5.25 4.84
20.00 288.00 0.00 5.25 4.84
21.00 288.00 0.00 5.25 4.84
22.00 288.00 0.00 5.25 4.84
23.00 288.00 0.00 5.25 4.84
24.00 288.00 0.00 5.25 4.84
25.00 288.00 0.00 5.25 4.84
26.00 288.00 0.00 5.25 4.84
27.00 288.00 0.00 5.25 4.84
28.00 288.00 0.00 5.25 4.84
29.00 288.00 0.00 5.25 4.84
30.00 288.00 0.00 5.25 4.84
31.00 288.00 0.00 5.25 4.84
32.00 288.00 0.00 5.25 4.84
33.00 288.00 0.00 5.25 4.84
34.00 288.00 0.00 5.25 4.84
35.00 288.00 0.00 5.25 4.84
36.00 288.00 0.00 5.25 4.84
37.00 288.00 0.00 5.25 4.84
38.00 288.00 0.00 5.25 4.84
39.00 288.00 0.00 5.25 4.84
40.00 288.00 0.00 5.25 4.84
41.00 288.00 0.00 5.25 4.84
42.00 288.00 0.00 5.25 4.84
43.00 288.00 0.00 5.25 4.84
44.00 288.00 0.00 5.25 4.84
45.00 288.00 0.00 5.25 4.84
46.00 288.00 0.00 5.25 4.84
47.00 288.00 0.00 5.25 4.84
48.00 288.00 0.00 5.25 4.84
49.00 288.00 0.00 5.25 4.84
50.00 288.00 0.00 5.25 4.84
51.00 288.00 0.00 5.25 4.84
52.00 288.00 0.00 5.25 4.84
53.00 288.00 0.00 5.25 4.84
54.00 288.00 0.00 5.25 4.84
55.00 288.00 0.00 5.25 4.84
56.00 288.00 0.00 5.25 4.84
57.00 288.00 0.00 5.25 4.84
58.00 288.00 0.00 5.25 4.84
59.00 288.00 0.00 5.25 4.84
60.00 288.00 0.00 5.25 4.84
61.00 288.00 0.00 5.25 4.84
62.00 288.00 0.00 5.25 4.84
63.00 288.00 0.00 5.25 4.84
64.00 288.00 0.00 5.25 4.84
65.00 288.00 0.00 5.25 4.84
66.00 288.00 0.00 5.25 4.84
67.00 288.00 0.00 5.25 4.84
68.00 288.00 0.00 5.25 4.84
69.00 288.00 0.00 5.25 4.84
70.00 288.00 0.00 5.25 4.84
71.00 288.00 0.00 5.25 4.84
72.00 288.00 0.00 5.25 4.84
73.00 288.00 0.00 5.25 4.84
74.00 288.00 0.00 5.25 4.84
75.00 288.00 0.00 5.25 4.84
76.00 288.00 0.00 5.25 4.84
77.00 288.00 0.00 5.25 4.84
78.00 288.00 0.00 5.25 4.84
79.00 288.00 0.00 5.25 4.84
80.00 288.00 0.00 5.25 4.84
81.00 288.00 0.00 5.25 4.84
82.00 288.00 0.00 5.25 4.84
83.00 288.00 0.00 5.25 4.84
84.00 288.00 0.00 5.25 4.84
85.00 288.00 0.00 5.25 4.84
86.00 288.00 0.00 5.25 4.84
87.00 288.00 0.00 5.25 4.84
88.00 288.00 0.00 5.25 4.84
89.00 288.00 0.00 5.25 4.84
90.00 288.00 0.00 5.25 4.84
91.00 288.00 0.00 5.25 4.84
92.00 288.00 0.00 5.25 4.84
93.00 288.00 0.00 5.25 4.84
94.00 288.00 0.00 5.25 4.84
95.00 288.00 0.00 5.25 4.84
96.00 288.00 0.00 5.25 4.84
97.00 288.00 0.00 5.25 4.84
98.00 288.00 0.00 5.25 4.84
99.00 288.00 0.00 5.25 4.84
100.00 288.00 0.00 5.25 4.84
101.00 288.00 0.00 5.25 4.84
102.00 288.00 0.00 5.25 4.84
103.00 288.00 0.00 5.25 4.84
104.00 288.00 0.00 5.25 4.84
105.00 288.00 0.00 5.25 4.84
106.00 288.00 0.00 5.25 4.84
107.00 288.00 0.00 5.25 4.84
108.00 288.00 0.00 5.25 4.84
109.00 288.00 0.00 5.25 4.84
110.00 288.00 0.00 5.25 4.84
111.00 288.00 0.00 5.25 4.84
112.00 288.00 0.00 5.25 4.84
113.00 288.00 0.00 5.25 4.84
114.00 288.00 0.00 5.25 4.84
115.00 288.00 0.00 5.25 4.84
116.00 288.00 0.00 5.25 4.84
117.00 288.00 0.00 5.25 4.84
118.00 288.00 0.00 5.25 4.84
119.00 288.00 0.00 5.25 4.84
120.00 288.00 0.00 5.25 4.84
121.00 288.00 0.00 5.25 4.84
122.00 288.00 0.00 5.25 4.84
123.00 288.00 0.00 5.25 4.84
124.00 288.00 0.00 5.25 4.83
125.00 288.00 0.00 5.25 4.83
126.00 288.00 0.00 5.25 4.83
127.00 288.00 0.00 5.25 4.83
128.00 288.00 0.00 5.26 4.83
129.00 288.00 0.00 5.26 4.83
130.00 288.00 0.00 5.26 4.82
131.00 288.00 0.00 5.26 4.82
132.00 288.00 0.00 5.26 4.82
133.00 288.00 0.00 5.26 4.82
134.00 288.00 0.00 5.26 4.82
135.00 288.00 0.00 5.26 4.81
136.00 288.00 0.00 5.26 4.81
137.00 288.00 0.00 5.26 4.81
138.00 288.00 0.00 5.27 4.80
139.00 288.00 0.00 5.27 4.80
140.00 288.00 0.00 5.27 4.80
141.00 288.00 0.00 5.27 4.80
142.00 288.00 0.00 5.27 4.79
143.00 288.00 0.00 5.27 4.79
144.00 288.00 0.00 5.27 4.78
145.00 288.00 0.00 5.28 4.78
146.00 288.00 0.00 5.28 4.78
147.00 288.00 0.00 5.28 4.77
148.00 288.00 0.00 5.28 4.77
149.00 288.00 0.00 5.28 4.76
150.00 288.00 0.00 5.29 4.76
151.00 288.00 0.00 5.29 4.76
152.00 288.00 0.00 5.29 4.75
153.00 288.00 0.00 5.29 4.75
154.00 288.00 0.00 5.29 4.74
155.00 288.00 0.00 5.30 4.74
156.00 288.00 0.00 5.30 4.73
157.00 288.00 0.00 5.30 4.73
158.00 288.00 0.00 5.30 4.72
159.00 288.00 0.00 5.31 4.71
160.00 288.00 0.00 5.31 4.71
161.00 288.00 0.00 5.31 4.70
162.00 288.00 0.00 5.31 4.70
163.00 288.00 0.00 5.32 4.69
164.00 288.00 0.00 5.32 4.68
165.00 288.00 0.00 5.32 4.68
166.00 288.00 0.00 5.32 4.67
167.00 288.00 0.00 5.33 4.66
168.00 288.00 0.00 5.33 4.66
169.00 288.00 0.00 5.33 4.65
170.00 288.00 0.00 5.34 4.64
171.00 288.00 0.00 5.34 4.64
172.00 288.00 0.00 5.34 4.63
173.00 288.00 0.00 5.35 4.62
174.00 288.00 0.00 5.35 4.61
175.00 288.00 0.00 5.35 4.61
176.00 288.00 0.00 5.36 4.60
177.00 288.00 0.00 5.36 4.59
178.00 288.00 0.00 5.36 4.58
179.00 288.00 0.00 5.37 4.57
180.00 288.00 0.00 5.37 4.56
181.00 288.00 0.00 5.37 4.56
182.00 288.00 0.00 5.38 4.55
183.00 288.00 0.00 5.38 4.54
184.00 288.00 0.00 5.39 4.53
185.00 288.00 0.00 5.39 4.52
186.00 288.00 0.00 5.39 4.51
187.00 288.00 0.00 5.40 4.50
188.00 288.00 0.00 5.40 4.49
189.00 288.00 0.00 5.41 4.48
190.00 288.00 0.00 5.41 4.47
191.00 288.00 0.00 5.41 4.46
192.00 288.00 0.00 5.42 4.45
193.00 288.00 0.00 5.42 4.44
194.00 288.00 0.00 5.43 4.43
195.00 288.00 0.00 5.43 4.42
196.00 288.00 0.00 5.44 4.41
197.00 288.00 0.00 5.44 4.40
198.00 288.00 0.00 5.45 4.39
199.00 288.00 0.00 5.45 4.38
200.00 288.00 0.00 5.45 4.37
201.00 288.00 0.00 5.46 4.35
202.00 288.00 0.00 5.46 4.34
203.00 288.00 0.00 5.47 4.33
204.00 288.00 0.00 5.47 4.32
205.00 288.00 0.00 5.48 4.31
206.00 288.00 0.00 5.48 4.29
207.00 288.00 0.00 5.49 4.28
208.00 288.00 0.00 5.49 4.27
209.00 288.00 0.00 5.50 4.26
210.00 288.00 0.00 5.51 4.24
211.00 288.00 0.00 5.51 4.23
212.00 288.00 0.00 5.52 4.22
213.00 288.00 0.00 5.52 4.20
214.00 288.00 0.00 5.53 4.19
215.00 288.00 0.00 5.53 4.18
216.00 288.00 0.00 5.54 4.16
217.00 288.00 0.00 5.54 4.15
218.00 288.00 0.00 5.55 4.13
219.00 288.00 0.00 5.56 4.12
220.00 288.00 0.00 5.56 4.10
221.00 288.00 0.00 5.57 4.09
222.00 288.00 0.00 5.57 4.07
223.00 288.00 0.00 5.58 4.06
224.00 288.00 0.00 5.59 4.04
225.00 288.00 0.00 5.59 4.03
226.00 288.00 0.00 5.60 4.01
227.00 288.00 0.00 5.60 4.00
228.00 288.00 0.00 5.61 3.98
229.00 288.00 0.00 5.62 3.97
230.00 288.00 0.00 5.62 3.95
231.00 288.00 0.00 5.63 3.93
232.00 288.00 0.00 5.64 3.92
233.00 288.00 0.00 5.64 3.90
234.00 288.00 0.00 5.65 3.88
235.00 288.00 0.00 5.66 3.86
236.00 288.00 0.00 5.66 3.85
237.00 288.00 0.00 5.67 3.83
238.00 288.00 0.00 5.68 3.81
239.00 288.00 0.00 5.68 3.79
240.00 288.00 0.00 5.69 3.78
241.00 288.00 0.00 5.70 3.76
242.00 288.00 0.00 5.70 3.74
243.00 288.00 0.00 5.71 3.72
244.00 288.00 0.00 5.72 3.70
245.00 288.00 0.00 5.73 3.68
246.00 288.00 0.00 5.73 3.66
247.00 288.00 0.00 5.74 3.65
248.00 288.00 0.00 5.75 3.63
249.00 288.00 0.00 5.76 3.61
250.00 288.00 0.00 5.76 3.59
251.00 288.00 0.00 5.77 3.57
252.00 288.00 0.00 5.78 3.55
253.00 288.00 0.00 5.79 3.53
254.00 288.00 0.00 5.79 3.51
255.00 288.00 0.00 5.80 3.48
256.00 288.00 0.00 5.81 3.46
257.00 288.00 0.00 5.82 3.44
258.00 288.00 0.00 5.83 3.42
259.00 288.00 0.00 5.83 3.40
260.00 288.00 0.00 5.84 3.38
261.00 288.00 0.00 5.85 3.36
262.00 288.00 0.00 5.86 3.33
263.00 288.00 0.00 5.87 3.31
264.00 288.00 0.00 5.87 3.29
265.00 288.00 0.00 5.88 3.27
266.00 288.00 0.00 5.89 3.24
267.00 288.00 0.00 5.90 3.22
268.00 288.00 0.00 5.91 3.20
269.00 288.00 0.00 5.92 3.17
270.00 288.00 0.00 5.93 3.15
271.00 288.00 0.00 5.93 3.13
272.00 288.00 0.00 5.94 3.10
273.00 288.00 0.00 5.95 3.08
274.00 288.00 0.00 5.96 3.05
275.00 288.00 0.00 5.97 3.03
276.00 288.00 0.00 5.98 3.00
277.00 288.00 0.00 5.99 2.98
278.00 288.00 0.00 6.00 2.95
279.00 288.00 0.00 6.01 2.93
280.00 288.00 0.00 6.02 2.90
281.00 288.00 0.00 6.03 2.88
282.00 288.00 0.00 6.03 2.85
283.00 288.00 0.00 6.04 2.82
284.00 288.00 0.00 6.05 2.80
285.00 288.00 0.00 6.06 2.77
286.00 288.00 0.00 6.07 2.74
287.00 288.00 0.00 6.08 2.72
288.00 288.00 0.00 6.09 2.69
289.00 288.00 0.00 6.10 2.66
290.00 288.00 0.00 6.11 2.63
291.00 288.00 0.00 6.12 2.61
292.00 288.00 0.00 6.13 2.58
293.00 288.00 0.00 6.14 2.55
294.00 288.00 0.00 6.15 2.52
295.00 288.00 0.00 6.16 2.49
296.00 288.00 0.00 6.17 2.46
297.00 288.00 0.00 6.18 2.43
298.00 288.00 0.00 6.19 2.41
299.00 288.00 0.00 6.20 2.38
300.00 288.00 0.00 6.21 2.35
301.00 288.00 0.00 6.22 2.32
302.00 288.00 0.00 6.23 2.29
303.00 288.00 0.00 6.24 2.26
304.00 288.00 0.00 6.25 2.23
305.00 288.00 0.00 6.26 2.20
306.00 288.00 0.00 6.27 2.17
307.00 288.00 0.00 6.28 2.14
308.00 288.00 0.00 6.29 2.12
309.00 288.00 0.00 6.30 2.09
310.00 288.00 0.00 6.31 2.06
311.00 288.00 0.00 6.32 2.03
312.00 288.00 0.00 6.33 2.00
313.00 288.00 0.00 6.34 1.97
314.00 288.00 0.00 6.35 1.94
315.00 288.00 0.00 6.36 1.91
316.00 288.00 0.00 6.37 1.88
317.00 288.00 0.00 6.38 1.85
318.00 288.00 0.00 6.39 1.82
319.00 288.00 0.00 6.40 1.79
320.00 288.00 0.00 6.41 1.76
321.00 288.00 0.00 6.42 1.73
322.00 288.00 0.00 6.43 1.70
323.00 288.00 0.00 6.44 1.67
324.00 288.00 0.00 6.45 1.64
325.00 288.00 0.00 6.46 1.61
326.00 288.00 0.00 6.47 1.58
327.00 288.00 0.00 6.48 1.55
328.00 288.00 0.00 6.49 1.52
329.00 288.00 0.00 6.50 1.49
330.00 288.00 0.00 6.51 1.46
331.00 288.00 0.00 6.52 1.43
332.00 288.00 0.00 6.53 1.40
333.00 288.00 0.00 6.54 1.37
334.00 288.00 0.00 6.55 1.34
335.00 288.00 0.00 6.56 1.31
336.00 288.00 0.00 6.57 1.28
337.00 288.00 0.00 6.58 1.25
338.00 288.00 0.00 6.59 1.22
339.00 288.00 0.00 6.60 1.19
340.00 288.00 0.00 6.61 1.16
341.00 288.00 0.00 6.62 1.13
342.00 288.00 0.00 6.63 1.10
343.00 288.00 0.00 6.64 1.07
344.00 288.00 0.00 6.65 1.04
345.00 288.00 0.00 6.66 1.01
346.00 288.00 0.00 6.67 0.98
347.00 288.00 0.00 6.68 0.95
348.00 288.00 0.00 6.69 0.92
349.00 288.00 0.00 6.70 0.89
350.00 288.00 0.00 6.71 0.86
351.00 288.00 0.00 6.72 0.83
352.00 288.00 0.00 6.73 0.80
353.00 288.00 0.00 6.74 0.77
354.00 288.00 0.00 6.75 0.74
355.00 288.00 0.00 6.76 0.70
356.00 288.00 0.00 6.77 0.67
357.00 288.00 0.00 6.78 0.64
358.00 288.00 0.00 6.79 0.61
359.00 288.00 0.00 6.80 0.58
360.00 288.00 0.00 6.81 0.55
361.00 288.00 0.00 6.82 0.52
362.00 288.00 0.00 6.83 0.49
363.00 288.00 0.00 6.84 0.46
364.00 288.00 0.00 6.85 0.43
365.00 288.00 0.00 6.86 0.40
366.00 288.00 0.00 6.87 0.37
367.00 288.00 0.00 6.88 0.34
368.00 288.00 0.00 6.89 0.31
369.00 288.00 0.00 6.90 0.28
370.00 288.00 0.00 6.91 0.25
371.00 288.00 0.00 6.92 0.21
372.00 288.00 0.00 6.93 0.18
373.00 288.00 0.00 6.94 0.15
374.00 288.00 0.00 6.95 0.12
375.00 288.00 0.00 6.96 0.09
376.00 288.00 0.00 6.97 0.06
377.00 288.00 0.00 6.98 0.03
378.00 288.00 0.00 6.99 0.00
379.00 288.00 0.00 7.01 -0.03
380.00 288.00 0.00 7.02 -0.06
381.00 288.00 0.00 7.03 -0.09
382.00 288.00 0.00 7.04 -0.12
383.00 288.00 0.00 7.05 -0.15
384.00 288.00 0.00 7.06 -0.18
385.00 288.00 0.00 7.07 -0.21
386.00 288.00 0.00 7.08 -0.25
387.00 288.00 0.00 7.09 -0.28
388.00 288.00 0.00 7.10 -0.31
389.00 288.00 0.00 7.11 -0.34
390.00 288.00 0.00 7.12 -0.37
391.00 288.00 0.00 7.13 -0.40
392.00 288.00 0.00 7.14 -0.43
393.00 288.00 0.00 7.15 -0.46
394.00 288.00 0.00 7.16 -0.49
395.00 288.00 0.00 7.17 -0.52
396.00 288.00 0.00 7.18 -0.55
397.00 288.00 0.00 7.19 -0.58
398.00 288.00 0.00 7.20 -0.61
399.00 288.00 0.00 7.21 -0.64
400.00 288.00 0.00 7.22 -0.67
401.00 288.00 0.00 7.23 -0.70
402.00 288.00 0.00 7.24 -0.74
403.00 288.00 0.00 7.25 -0.77
404.00 288.00 0.00 7.26 -0.80
405.00 288.00 0.00 7.27 -0.83
406.00 288.00 0.00 7.28 -0.86
407.00 288.00 0.00 7.29 -0.89
408.00 288.00 0.00 7.30 -0.92
409.00 288.00 0.00 7.31 -0.95
410.00 288.00 0.00 7.32 -0.98
411.00 288.00 0.00 7.33 -1.01
412.00 288.00 0.00 7.34 -1.04
413.00 288.00 0.00 7.35 -1.07
414.00 288.00 0.00 7.36 -1.10
415.00 288.00 0.00 7.37 -1.13
416.00 288.00 0.00 7.38 -1.16
417.00 288.00 0.00 7.39 -1.19
418.00 288.00 0.00 7.40 -1.22
419.00 288.00 0.00 7.41 -1.25
420.00 288.00 0.00 7.42 -1.28
421.00 288.00 0.00 7.43 -1.31
422.00 288.00 0.00 7.44 -1.34
423.00 288.00 0.00 7.45 -1.37
424.00 288.00 0.00 7.46 -1.40
425.00 288.00 0.00 7.47 -1.43
426.00 288.00 0.00 7.48 -1.46
427.00 288.00 0.00 7.49 -1.49
428.00 288.00 0.00 7.50 -1.52
429.00 288.00 0.00 7.51 -1.55
430.00 288.00 0.00 7.52 -1.58
431.00 288.00 0.00 7.53 -1.61
432.00 288.00 0.00 7.54 -1.64
433.00 288.00 0.00 7.55 -1.67
434.00 288.00 0.00 7.56 -1.70
435.00 288.00 0.00 7.57 -1.73
436.00 288.00 0.00 7.58 -1.76
437.00 288.00 0.00 7.59 -1.79
438.00 288.00 0.00 7.60 -1.82
439.00 288.00 0.00 7.61 -1.85
440.00 288.00 0.00 7.62 -1.88
441.00 288.00 0.00 7.63 -1.91
442.00 288.00 0.00 7.64 -1.94
443.00 288.00 0.00 7.65 -1.97
444.00 288.00 0.00 7.66 -2.00
445.00 288.00 0.00 7.67 -2.03
446.00 288.00 0.00 7.68 -2.06
447.00 288.00 0.00 7.69 -2.09
448.00 288.00 0.00 7.70 -2.12
449.00 288.00 0.00 7.71 -2.14
450.00 288.00 0.00 7.72 -2.17
451.00 288.00 0.00 7.73 -2.20
452.00 288.00 0.00 7.74 -2.23
453.00 288.00 0.00 7.75 -2.26
454.00 288.00 0.00 7.76 -2.29
455.00 288.00 0.00 7.77 -2.32
456.00 288.00 0.00 7.78 -2.35
457.00 288.00 0.00 7.79 -2.38
458.00 288.00 0.00 7.80 -2.41
459.00 288.00 0.00 7.81 -2.43
460.00 288.00 0.00 7.82 -2.46
461.00 288.00 0.00 7.83 -2.49
462.00 288.00 0.00 7.84 -2.52
463.00 288.00 0.00 7.85 -2.55
464.00 288.00 0.00 7.86 -2.58
465.00 288.00 0.00 7.87 -2.61
466.00 288.00 0.00 7.88 -2.63
467.00 288.00 0.00 7.89 -2.66
468.00 288.00 0.00 7.90 -2.69
469.00 288.00 0.00 7.91 -2.72
470.00 288.00 0.00 7.92 -2.74
471.00 288.00 0.00 7.93 -2.77
472.00 288.00 0.00 7.94 -2.80
473.00 288.00 0.00 7.95 -2.82
474.00 288.00 0.00 7.96 -2.85
475.00 288.00 0.00 7.97 -2.88
476.00 288.00 0.00 7.97 -2.90
477.00 288.00 0.00 7.98 -2.93
478.00 288.00 0.00 7.99 -2.95
479.00 288.00 0.00 8.00 -2.98
480.00 288.00 0.00 8.01 -3.00
481.00 288.00 0.00 8.02 -3.03
482.00 288.00 0.00 8.03 -3.05
483.00 288.00 0.00 8.04 -3.08
484.00 288.00 0.00 8.05 -3.10
485.00 288.00 0.00 8.06 -3.13
486.00 288.00 0.00 8.07 -3.15
487.00 288.00 0.00 8.07 -3.17
488.00 288.00 0.00 8.08 -3.20
489.00 288.00 0.00 8.09 -3.22
490.00 288.00 0.00 8.10 -3.24
491.00 288.00 0.00 8.11 -3.27
492.00 288.00 0.00 8.12 -3.29
493.00 288.00 0.00 8.13 -3.31
494.00 288.00 0.00 8.13 -3.33
495.00 288.00 0.00 8.14 -3.36
496.00 288.00 0.00 8.15 -3.38
497.00 288.00 0.00 8.16 -3.40
498.00 288.00 0.00 8.17 -3.42
499.00 288.00 0.00 8.17 -3.44
500.00 288.00 0.00 8.18 -3.46
501.00 288.00 0.00 8.19 -3.48
502.00 288.00 0.00 8.20 -3.51
503.00 288.00 0.00 8.21 -3.53
504.00 288.00 0.00 8.21 -3.55
505.00 288.00 0.00 8.22 -3.57
506.00 288.00 0.00 8.23 -3.59
507.00 288.00 0.00 8.24 -3.61
508.00 288.00 0.00 8.24 -3.63
509.00 288.00 0.00 8.25 -3.65
510.00 288.00 0.00 8.26 -3.66
511.00 288.00 0.00 8.27 -3.68
512.00 288.00 0.00 8.27 -3.70
513.00 288.00 0.00 8.28 -3.72
514.00 288.00 0.00 8.29 -3.74
515.00 288.00 0.00 8.30 -3.76
516.00 288.00 0.00 8.30 -3.78
517.00 288.00 0.00 8.31 -3.79
518.00 288.00 0.00 8.32 -3.81
519.00 288.00 0.00 8.32 -3.83
520.00 288.00 0.00 8.33 -3.85
521.00 288.00 0.00 8.34 -3.86
522.00 288.00 0.00 8.34 -3.88
523.00 288.00 0.00 8.35 -3.90
524.00 288.00 0.00 8.36 -3.92
525.00 288.00 0.00 8.36 -3.93
526.00 288.00 0.00 8.37 -3.95
527.00 288.00 0.00 8.38 -3.97
528.00 288.00 0.00 8.38 -3.98
529.00 288.00 0.00 8.39 -4.00
530.00 288.00 0.00 8.40 -4.01
531.00 288.00 0.00 8.40 -4.03
532.00 288.00 0.00 8.41 -4.04
533.00 288.00 0.00 8.41 -4.06
534.00 288.00 0.00 8.42 -4.07
535.00 288.00 0.00 8.43 -4.09
536.00 288.00 0.00 8.43 -4.10
537.00 288.00 0.00 8.44 -4.12
538.00 288.00 0.00 8.44 -4.13
539.00 288.00 0.00 8.45 -4.15
540.00 288.00 0.00 8.46 -4.16
541.00 288.00 0.00 8.46 -4.18
542.00 288.00 0.00 8.47 -4.19
543.00 288.00 0.00 8.47 -4.20
544.00 288.00 0.00 8.48 -4.22
545.00 288.00 0.00 8.48 -4.23
546.00 288.00 0.00 8.49 -4.24
547.00 288.00 0.00 8.49 -4.26
548.00 288.00 0.00 8.50 -4.27
549.00 288.00 0.00 8.51 -4.28
550.00 288.00 0.00 8.51 -4.29
551.00 288.00 0.00 8.52 -4.31
552.00 288.00 0.00 8.52 -4.32
553.00 288.00 0.00 8.53 -4.33
554.00 288.00 0.00 8.53 -4.34
555.00 288.00 0.00 8.54 -4.35
556.00 288.00 0.00 8.54 -4.37
557.00 288.00 0.00 8.55 -4.38
558.00 288.00 0.00 8.55 -4.39
559.00 288.00 0.00 8.55 -4.40
560.00 288.00 0.00 8.56 -4.41
561.00 288.00 0.00 8.56 -4.42
562.00 288.00 0.00 8.57 -4.43
563.00 288.00 0.00 8.57 -4.44
564.00 288.00 0.00 8.58 -4.45
565.00 288.00 0.00 8.58 -4.46
566.00 288.00 0.00 8.59 -4.47
567.00 288.00 0.00 8.59 -4.48
568.00 288.00 0.00 8.59 -4.49
569.00 288.00 0.00 8.60 -4.50
570.00 288.00 0.00 8.60 -4.51
571.00 288.00 0.00 8.61 -4.52
572.00 288.00 0.00 8.61 -4.53
573.00 288.00 0.00 8.61 -4.54
574.00 288.00 0.00 8.62 -4.55
575.00 288.00 0.00 8.62 -4.56
576.00 288.00 0.00 8.63 -4.56
577.00 288.00 0.00 8.63 -4.57
578.00 288.00 0.00 8.63 -4.58
579.00 288.00 0.00 8.64 -4.59
580.00 288.00 0.00 8.64 -4.60
581.00 288.00 0.00 8.64 -4.61
582.00 288.00 0.00 8.65 -4.61
583.00 288.00 0.00 8.65 -4.62
584.00 288.00 0.00 8.65 -4.63
585.00 288.00 0.00 8.66 -4.64
586.00 288.00 0.00 8.66 -4.64
587.00 288.00 0.00 8.66 -4.65
588.00 288.00 0.00 8.67 -4.66
589.00 288.00 0.00 8.67 -4.66
590.00 288.00 0.00 8.67 -4.67
591.00 288.00 0.00 8.68 -4.68
592.00 288.00 0.00 8.68 -4.68
593.00 288.00 0.00 8.68 -4.69
594.00 288.00 0.00 8.68 -4.70
595.00 288.00 0.00 8.69 -4.70
596.00 288.00 0.00 8.69 -4.71
597.00 288.00 0.00 8.69 -4.71
598.00 288.00 0.00 8.69 -4.72
599.00 288.00 0.00 8.70 -4.73
600.00 288.00 0.00 8.70 -4.73
601.00 288.00 0.00 8.70 -4.74
602.00 288.00 0.00 8.70 -4.74
603.00 288.00 0.00 8.71 -4.75
604.00 288.00 0.00 8.71 -4.75
605.00 288.00 0.00 8.71 -4.76
606.00 288.00 0.00 8.71 -4.76
607.00 288.00 0.00 8.71 -4.76
608.00 288.00 0.00 8.72 -4.77
609.00 288.00 0.00 8.72 -4.77
610.00 288.00 0.00 8.72 -4.78
611.00 288.00 0.00 8.72 -4.78
612.00 288.00 0.00 8.72 -4.78
613.00 288.00 0.00 8.73 -4.79
614.00 288.00 0.00 8.73 -4.79
615.00 288.00 0.00 8.73 -4.80
616.00 288.00 0.00 8.73 -4.80
617.00 288.00 0.00 8.73 -4.80
618.00 288.00 0.00 8.73 -4.80
619.00 288.00 0.00 8.73 -4.81
620.00 288.00 0.00 8.74 -4.81
621.00 288.00 0.00 8.74 -4.81
622.00 288.00 0.00 8.74 -4.82
623.00 288.00 0.00 8.74 -4.82
624.00 288.00 0.00 8.74 -4.82
625.00 288.00 0.00 8.74 -4.82
626.00 288.00 0.00 8.74 -4.82
627.00 288.00 0.00 8.74 -4.83
628.00 288.00 0.00 8.74 -4.83
629.00 288.00 0.00 8.74 -4.83
630.00 288.00 0.00 8.75 -4.83
631.00 288.00 0.00 8.75 -4.83
632.00 288.00 0.00 8.75 -4.83
633.00 288.00 0.00 8.75 -4.84
634.00 288.00 0.00 8.75 -4.84
635.00 288.00 0.00 8.75 -4.84
636.00 288.00 0.00 8.75 -4.84
637.00 288.00 0.00 8.75 -4.84
638.00 288.00 0.00 8.75 -4.84
639.00 288.00 0.00 8.75 -4.84
640.00 288.00 0.00 8.75 -4.84
641.00 288.00 0.00 8.75 -4.84
642.00 288.00 0.00 8.75 -4.84
643.00 288.00 0.00 8.75 -4.84
644.00 288.00 0.00 8.75 -4.84
645.00 288.00 0.00 8.75 -4.84
646.00 288.00 0.00 8.75 -4.84
647.00 288.00 0.00 8.75 -4.84
648.00 288.00 0.00 8.75 -4.84
649.00 288.00 0.00 8.75 -4.84
650.00 288.00 0.00 8.75 -4.84
651.00 288.00 0.00 8.75 -4.84
652.00 288.00 0.00 8.75 -4.84
653.00 288.00 0.00 8.75 -4.84
654.00 288.00 0.00 8.75 -4.84
655.00 288.00 0.00 8.75 -4.84
656.00 288.00 0.00 8.75 -4.84
657.00 288.00 0.00 8.75 -4.84
658.00 288.00 0.00 8.75 -4.84
659.00 288.00 0.00 8.75 -4.84
660.00 288.00 0.00 8.75 -4.84
661.00 288.00 0.00 8.75 -4.84
662.00 288.00 0.00 8.75 -4.84
663.00 288.00 0.00 8.75 -4.84
664.00 288.00 0.00 8.75 -4.84
665.00 288.00 0.00 8.75 -4.84
666.00 288.00 0.00 8.75 -4.84
667.00 288.00 0.00 8.75 -4.84
668.00 288.00 0.00 8.75 -4.84
669.00 288.00 0.00 8.75 -4.84
670.00 288.00 0.00 8.75 -4.84
671.00 288.00 0.00 8.75 -4.84
672.00 288.00 0.00 8.75 -4.84
673.00 288.00 0.00 8.75 -4.84
674.00 288.00 0.00 8.75 -4.84
675.00 288.00 0.00 8.75 -4.84
676.00 288.00 0.00 8.75 -4.84
677.00 288.00 0.00 8.75 -4.84
678.00 288.00 0.00 8.75 -4.84
679.00 288.00 0.00 8.75 -4.84
680.00 288.00 0.00 8.75 -4.84
681.00 288.00 0.00 8.75 -4.84
682.00 288.00 0.00 8.75 -4.84
683.00 288.00 0.00 8.75 -4.84
684.00 288.00 0.00 8.75 -4.84
685.00 288.00 0.00 8.75 -4.84
686.00 288.00 0.00 8.75 -4.84
687.00 288.00 0.00 8.75 -4.84
688.00 288.00 0.00 8.75 -4.84
689.00 288.00 0.00 8.75 -4.84
690.00 288.00 0.00 8.75 -4.84
691.00 288.00 0.00 8.75 -4.84
692.00 288.00 0.00 8.75 -4.84
693.00 288.00 0.00 8.75 -4.84
694.00 288.00 0.00 8.75 -4.84
695.00 288.00 0.00 8.75 -4.84
696.00 288.00 0.00 8.75 -4.84
697.00 288.00 0.00 8.75 -4.84
698.00 288.00 0.00 8.75 -4.84
699.00 288.00 0.00 8.75 -4.84
700.00 288.00 0.00 8.75 -4.84
701.00 288.00 0.00 8.75 -4.84
702.00 288.00 0.00 8.75 -4.84
703.00 288.00 0.00 8.75 -4.84
704.00 288.00 0.00 8.75 -4.84
705.00 288.00 0.00 8.75 -4.84
706.00 288.00 0.00 8.75 -4.84
707.00 288.00 0.00 8.75 -4.84
708.00 288.00 0.00 8.75 -4.84
709.00 288.00 0.00 8.75 -4.84
710.00 288.00 0.00 8.75 -4.84
711.00 288.00 0.00 8.75 -4.84
712.00 288.00 0.00 8.75 -4.84
713.00 288.00 0.00 8.75 -4.84
714.00 288.00 0.00 8.75 -4.84
715.00 288.00 0.00 8.75 -4.84
716.00 288.00 0.00 8.75 -4.84
717.00 288.00 0.00 8.75 -4.84
718.00 288.00 0.00 8.75 -4.84
719.00 288.00 0.00 8.75 -4.84
720.00 288.00 0.00 8.75 -4.84
721.00 288.00 0.00 8.75 -4.84
722.00 288.00 0.00 8.75 -4.84
723.00 288.00 0.00 8.75 -4.84
724.00 288.00 0.00 8.75 -4.84
725.00 288.00 0.00 8.75 -4.84
726.00 288.00 0.00 8.75 -4.84
727.00 288.00 0.00 8.75 -4.84
728.00 288.00 0.00 8.75 -4.84
729.00 288.00 0.00 8.75 -4.84
730.00 288.00 0.00 8.75 -4.84
731.00 288.00 0.00 8.75 -4.84
732.00 288.00 0.00 8.75 -4.84
733.00 288.00 0.00 8.75 -4.84
734.00 288.00 0.00 8.75 -4.84
735.00 288.00 0.00 8.75 -4.84
736.00 288.00 0.00 8.75 -4.84
737.00 288.00 0.00 8.75 -4.84
738.00 288.00 0.00 8.75 -4.84
739.00 288.00 0.00 8.75 -4.84
740.00 288.00 0.00 8.75 -4.84
741.00 288.00 0.00 8.75 -4.84
742.00 288.00 0.00 8.75 -4.84
743.00 288.00 0.00 8.75 -4.84
744.00 288.00 0.00 8.75 -4.84
745.00 288.00 0.00 8.75 -4.84
746.00 288.00 0.00 8.75 -4.84
747.00 288.00 0.00 8.75 -4.84
748.00 288.00 0.00 8.75 -4.84
749.00 288.00 0.00 8.75 -4.84
750.00 288.00 0.00 8.75 -4.84
751.00 288.00 0.00 8.75 -4.84
752.00 288.00 0.00 8.75 -4.84
753.00 288.00 0.00 8.75 -4.84
754.00 288.00 0.00 8.75 -4.84
755.00 288.00 0.00 8.75 -4.84
756.00 288.00 0.00 8.75 -4.84
757.00 288.00 0.00 8.75 -4.84
758.00 288.00 0.00 8.75 -4.84
759.00 288.00 0.00 8.75 -4.84
760.00 288.00 0.00 8.75 -4.84
761.00 288.00 0.00 8.75 -4.84
762.00 288.00 0.00 8.75 -4.84
763.00 288.00 0.00 8.75 -4.84
764.00 288.00 0.00 8.75 -4.84
765.00 288.00 0.00 8.75 -4.84
766.00 288.00 0.00 8.75 -4.84
767.00 288.00 0.00 8.75 -4.84
768.00 288.00 0.00 8.75 -4.84
769.00 288.00 0.00 8.75 -4.84
770.00 288.00 0.00 8.75 -4.84
771.00 288.00 0.00 8.75 -4.84
772.00 288.00 0.00 8.75 -4.84
773.00 288.00 0.00 8.75 -4.84
774.00 288.00 0.00 8.75 -4.84
775.00 288.00 0.00 8.75 -4.84
776.00 288.00 0.00 8.75 -4.84
777.00 288.00 0.00 8.75 -4.84
778.00 288.00 0.00 8.75 -4.84
779.00 288.00 0.00 8.75 -4.84
780.00 288.00 0.00 8.75 -4.84
781.00 288.00 0.00 8.75 -4.84
782.00 288.00 0.00 8.75 -4.84
783.00 288.00 0.00 8.75 -4.84
784.00 288.00 0.00 8.75 -4.84
785.00 288.00 0.00 8.75 -4.84
786.00 288.00 0.00 8.75 -4.84
787.00 288.00 0.00 8.75 -4.84
788.00 288.00 0.00 8.75 -4.84
789.00 288.00 0.00 8.75 -4.84
790.00 288.00 0.00 8.75 -4.84
791.00 288.00 0.00 8.75 -4.84
792.00 288.00 0.00 8.75 -4.84
793.00 288.00 0.00 8.75 -4.84
794.00 288.00 0.00 8.75 -4.84
795.00 288.00 0.00 8.75 -4.84
796.00 288.00 0.00 8.75 -4.84
797.00 288.00 0.00 8.75 -4.84
798.00 288.00 0.00 8.75 -4.84
799.00 288.00 0.00 8.75 -4.84
800.00 288.00 0.00 8.75 -4.84
801.00 288.00 0.00 8.75 -4.84
802.00 288.00 0.00 8.75 -4.84
803.00 288.00 0.00 8.75 -4.84
804.00 288.00 0.00 8.75 -4.84
805.00 288.00 0.00 8.75 -4.84
806.00 288.00 0.00 8.75 -4.84
807.00 288.00 0.00 8.75 -4.84
808.00 288.00 0.00 8.75 -4.84
809.00 288.00 0.00 8.75 -4.84
810.00 288.00 0.00 8.75 -4.84
811.00 288.00 0.00 8.75 -4.84
812.00 288.00 0.00 8.75 -4.84
813.00 288.00 0.00 8.75 -4.84
814.00 288.00 0.00 8.75 -4.84
815.00 288.00 0.00 8.75 -4.84
816.00 288.00 0.00 8.75 -4.84
817.00 288.00 0.00 8.75 -4.84
818.00 288.00 0.00 8.75 -4.84
819.00 288.00 0.00 8.75 -4.84
820.00 288.00 0.00 8.75 -4.84
821.00 288.00 0.00 8.75 -4.84
822.00 288.00 0.00 8.75 -4.84
823.00 288.00 0.00 8.75 -4.84
824.00 288.00 0.00 8.75 -4.84
825.00 288.00 0.00 8.75 -4.84
826.00 288.00 0.00 8.75 -4.84
827.00 288.00 0.00 8.75 -4.84
828.00 288.00 0.00 8.75 -4.84
829.00 288.00 0.00 8.75 -4.84
830.00 288.00 0.00 8.75 -4.84
831.00 288.00 0.00 8.75 -4.84
