1000.00 288.00 00.00
0.00 288.00 0.00 14.41 -0.90
1.00 288.00 0.00 14.41 -0.90
2.00 288.00 0.00 14.41 -0.90
3.00 288.00 0.00 14.41 -0.90
4.00 288.00 0.00 14.41 -0.90
5.00 288.00 0.00 14.41 -0.90
6.00 288.00 0.00 14.41 -0.90
7.00 288.00 0.00 14.41 -0.90
8.00 288.00 0.00 14.41 -0.90
9.00 288.00 0.00 14.41 -0.90
10.00 288.00 0.00 14.41 -0.90
11.00 288.00 0.00 14.41 -0.90
12.00 288.00 0.00 14.41 -0.90
13.00 288.00 0.00 14.41 -0.90
14.00 288.00 0.00 14.41 -0.90
15.00 288.00 0.00 14.41 -0.90
16.00 288.00 0.00 14.41 -0.90
17.00 288.00 0.00 14.41 -0.90
18.00 288.00 0.00 14.41 -0.90
19.00 288.00 0.00 14.41 -0.90
20.00 288.00 0.00 14.41 -0.90
21.00 288.00 0.00 14.41 -0.90
22.00 288.00 0.00 14.41 -0.90
23.00 288.00 0.00 14.41 -0.90
24.00 288.00 0.00 14.41 -0.90
25.00 288.00 0.00 14.41 -0.90
26.00 288.00 0.00 14.41 -0.90
27.00 288.00 0.00 14.41 -0.90
28.00 288.00 0.00 14.41 -0.90
29.00 288.00 0.00 14.41 -0.90
30.00 288.00 0.00 14.41 -0.90
31.00 288.00 0.00 14.41 -0.90
32.00 288.00 0.00 14.41 -0.90
33.00 288.00 0.00 14.41 -0.90
34.00 288.00 0.00 14.41 -0.90
35.00 288.00 0.00 14.41 -0.90
36.00 288.00 0.00 14.41 -0.90
37.00 288.00 0.00 14.41 -0.90
38.00 288.00 0.00 14.41 -0.90
39.00 288.00 0.00 14.41 -0.90
40.00 288.00 0.00 14.41 -0.90
41.00 288.00 0.00 14.41 -0.90
42.00 288.00 0.00 14.41 -0.90
43.00 288.00 0.00 14.41 -0.90
44.00 288.00 0.00 14.41 -0.90
45.00 288.00 0.00 14.41 -0.90
46.00 288.00 0.00 14.41 -0.90
47.00 288.00 0.00 14.41 -0.90
48.00 288.00 0.00 14.41 -0.90
49.00 288.00 0.00 14.41 -0.90
50.00 288.00 0.00 14.41 -0.90
51.00 288.00 0.00 14.41 -0.90
52.00 288.00 0.00 14.41 -0.90
53.00 288.00 0.00 14.41 -0.90
54.00 288.00 0.00 14.41 -0.90
55.00 288.00 0.00 14.41 -0.90
56.00 288.00 0.00 14.41 -0.90
57.00 288.00 0.00 14.41 -0.90
58.00 288.00 0.00 14.41 -0.90
59.00 288.00 0.00 14.41 -0.90
60.00 288.00 0.00 14.41 -0.90
61.00 288.00 0.00 14.41 -0.90
62.00 288.00 0.00 14.41 -0.90
63.00 288.00 0.00 14.41 -0.90
64.00 288.00 0.00 14.41 -0.90
65.00 288.00 0.00 14.41 -0.90
66.00 288.00 0.00 14.41 -0.90
67.00 288.00 0.00 14.41 -0.90
68.00 288.00 0.00 14.41 -0.90
69.00 288.00 0.00 14.41 -0.90
70.00 288.00 0.00 14.41 -0.90
71.00 288.00 0.00 14.41 -0.90
72.00 288.00 0.00 14.41 -0.90
73.00 288.00 0.00 14.41 -0.90
74.00 288.00 0.00 14.41 -0.90
75.00 288.00 0.00 14.41 -0.90
76.00 288.00 0.00 14.41 -0.90
77.00 288.00 0.00 14.41 -0.90
78.00 288.00 0.00 14.41 -0.90
79.00 288.00 0.00 14.41 -0.90
80.00 288.00 0.00 14.41 -0.90
81.00 288.00 0.00 14.41 -0.90
82.00 288.00 0.00 14.41 -0.90
83.00 288.00 0.00 14.41 -0.90
84.00 288.00 0.00 14.41 -0.90
85.00 288.00 0.00 14.40 -0.90
86.00 288.00 0.00 14.40 -0.90
87.00 288.00 0.00 14.40 -0.90
88.00 288.00 0.00 14.40 -0.90
89.00 288.00 0.00 14.40 -0.90
90.00 288.00 0.00 14.39 -0.90
91.00 288.00 0.00 14.39 -0.90
92.00 288.00 0.00 14.39 -0.90
93.00 288.00 0.00 14.39 -0.90
94.00 288.00 0.00 14.38 -0.90
95.00 288.00 0.00 14.38 -0.90
96.00 288.00 0.00 14.38 -0.90
97.00 288.00 0.00 14.37 -0.90
98.00 288.00 0.00 14.37 -0.90
99.00 288.00 0.00 14.36 -0.90
100.00 288.00 0.00 14.36 -0.90
101.00 288.00 0.00 14.35 -0.90
102.00 288.00 0.00 14.35 -0.90
103.00 288.00 0.00 14.34 -0.89
104.00 288.00 0.00 14.34 -0.89
105.00 288.00 0.00 14.33 -0.89
106.00 288.00 0.00 14.33 -0.89
107.00 288.00 0.00 14.32 -0.89
108.00 288.00 0.00 14.32 -0.89
109.00 288.00 0.00 14.31 -0.89
110.00 288.00 0.00 14.30 -0.89
111.00 288.00 0.00 14.30 -0.89
112.00 288.00 0.00 14.29 -0.89
113.00 288.00 0.00 14.28 -0.89
114.00 288.00 0.00 14.28 -0.89
115.00 288.00 0.00 14.27 -0.89
116.00 288.00 0.00 14.26 -0.88
117.00 288.00 0.00 14.25 -0.88
118.00 288.00 0.00 14.25 -0.88
119.00 288.00 0.00 14.24 -0.88
120.00 288.00 0.00 14.23 -0.88
121.00 288.00 0.00 14.22 -0.88
122.00 288.00 0.00 14.21 -0.88
123.00 288.00 0.00 14.20 -0.88
124.00 288.00 0.00 14.19 -0.88
125.00 288.00 0.00 14.19 -0.87
126.00 288.00 0.00 14.18 -0.87
127.00 288.00 0.00 14.17 -0.87
128.00 288.00 0.00 14.16 -0.87
129.00 288.00 0.00 14.15 -0.87
130.00 288.00 0.00 14.14 -0.87
131.00 288.00 0.00 14.13 -0.87
132.00 288.00 0.00 14.11 -0.87
133.00 288.00 0.00 14.10 -0.87
134.00 288.00 0.00 14.09 -0.86
135.00 288.00 0.00 14.08 -0.86
136.00 288.00 0.00 14.07 -0.86
137.00 288.00 0.00 14.06 -0.86
138.00 288.00 0.00 14.05 -0.86
139.00 288.00 0.00 14.04 -0.86
140.00 288.00 0.00 14.02 -0.86
141.00 288.00 0.00 14.01 -0.85
142.00 288.00 0.00 14.00 -0.85
143.00 288.00 0.00 13.99 -0.85
144.00 288.00 0.00 13.97 -0.85
145.00 288.00 0.00 13.96 -0.85
146.00 288.00 0.00 13.95 -0.85
147.00 288.00 0.00 13.93 -0.84
148.00 288.00 0.00 13.92 -0.84
149.00 288.00 0.00 13.90 -0.84
150.00 288.00 0.00 13.89 -0.84
151.00 288.00 0.00 13.88 -0.84
152.00 288.00 0.00 13.86 -0.84
153.00 288.00 0.00 13.85 -0.83
154.00 288.00 0.00 13.83 -0.83
155.00 288.00 0.00 13.82 -0.83
156.00 288.00 0.00 13.80 -0.83
157.00 288.00 0.00 13.79 -0.83
158.00 288.00 0.00 13.77 -0.82
159.00 288.00 0.00 13.75 -0.82
160.00 288.00 0.00 13.74 -0.82
161.00 288.00 0.00 13.72 -0.82
162.00 288.00 0.00 13.71 -0.82
163.00 288.00 0.00 13.69 -0.81
164.00 288.00 0.00 13.67 -0.81
165.00 288.00 0.00 13.65 -0.81
166.00 288.00 0.00 13.64 -0.81
167.00 288.00 0.00 13.62 -0.81
168.00 288.00 0.00 13.60 -0.80
169.00 288.00 0.00 13.58 -0.80
170.00 288.00 0.00 13.57 -0.80
171.00 288.00 0.00 13.55 -0.80
172.00 288.00 0.00 13.53 -0.79
173.00 288.00 0.00 13.51 -0.79
174.00 288.00 0.00 13.49 -0.79
175.00 288.00 0.00 13.47 -0.79
176.00 288.00 0.00 13.45 -0.79
177.00 288.00 0.00 13.43 -0.78
178.00 288.00 0.00 13.42 -0.78
179.00 288.00 0.00 13.40 -0.78
180.00 288.00 0.00 13.38 -0.78
181.00 288.00 0.00 13.36 -0.77
182.00 288.00 0.00 13.33 -0.77
183.00 288.00 0.00 13.31 -0.77
184.00 288.00 0.00 13.29 -0.77
185.00 288.00 0.00 13.27 -0.76
186.00 288.00 0.00 13.25 -0.76
187.00 288.00 0.00 13.23 -0.76
188.00 288.00 0.00 13.21 -0.76
189.00 288.00 0.00 13.19 -0.75
190.00 288.00 0.00 13.16 -0.75
191.00 288.00 0.00 13.14 -0.75
192.00 288.00 0.00 13.12 -0.74
193.00 288.00 0.00 13.10 -0.74
194.00 288.00 0.00 13.08 -0.74
195.00 288.00 0.00 13.05 -0.74
196.00 288.00 0.00 13.03 -0.73
197.00 288.00 0.00 13.01 -0.73
198.00 288.00 0.00 12.98 -0.73
199.00 288.00 0.00 12.96 -0.73
200.00 288.00 0.00 12.93 -0.72
201.00 288.00 0.00 12.91 -0.72
202.00 288.00 0.00 12.89 -0.72
203.00 288.00 0.00 12.86 -0.71
204.00 288.00 0.00 12.84 -0.71
205.00 288.00 0.00 12.81 -0.71
206.00 288.00 0.00 12.79 -0.70
207.00 288.00 0.00 12.76 -0.70
208.00 288.00 0.00 12.74 -0.70
209.00 288.00 0.00 12.71 -0.70
210.00 288.00 0.00 12.69 -0.69
211.00 288.00 0.00 12.66 -0.69
212.00 288.00 0.00 12.63 -0.69
213.00 288.00 0.00 12.61 -0.68
214.00 288.00 0.00 12.58 -0.68
215.00 288.00 0.00 12.55 -0.68
216.00 288.00 0.00 12.53 -0.67
217.00 288.00 0.00 12.50 -0.67
218.00 288.00 0.00 12.47 -0.67
219.00 288.00 0.00 12.44 -0.66
220.00 288.00 0.00 12.42 -0.66
221.00 288.00 0.00 12.39 -0.66
222.00 288.00 0.00 12.36 -0.65
223.00 288.00 0.00 12.33 -0.65
224.00 288.00 0.00 12.30 -0.65
225.00 288.00 0.00 12.27 -0.64
226.00 288.00 0.00 12.25 -0.64
227.00 288.00 0.00 12.22 -0.63
228.00 288.00 0.00 12.19 -0.63
229.00 288.00 0.00 12.16 -0.63
230.00 288.00 0.00 12.13 -0.62
231.00 288.00 0.00 12.10 -0.62
232.00 288.00 0.00 12.07 -0.62
233.00 288.00 0.00 12.04 -0.61
234.00 288.00 0.00 12.01 -0.61
235.00 288.00 0.00 11.98 -0.61
236.00 288.00 0.00 11.95 -0.60
237.00 288.00 0.00 11.91 -0.60
238.00 288.00 0.00 11.88 -0.59
239.00 288.00 0.00 11.85 -0.59
240.00 288.00 0.00 11.82 -0.59
241.00 288.00 0.00 11.79 -0.58
242.00 288.00 0.00 11.76 -0.58
243.00 288.00 0.00 11.72 -0.57
244.00 288.00 0.00 11.69 -0.57
245.00 288.00 0.00 11.66 -0.57
246.00 288.00 0.00 11.63 -0.56
247.00 288.00 0.00 11.59 -0.56
248.00 288.00 0.00 11.56 -0.55
249.00 288.00 0.00 11.53 -0.55
250.00 288.00 0.00 11.49 -0.55
251.00 288.00 0.00 11.46 -0.54
252.00 288.00 0.00 11.43 -0.54
253.00 288.00 0.00 11.39 -0.53
254.00 288.00 0.00 11.36 -0.53
255.00 288.00 0.00 11.32 -0.53
256.00 288.00 0.00 11.29 -0.52
257.00 288.00 0.00 11.25 -0.52
258.00 288.00 0.00 11.22 -0.51
259.00 288.00 0.00 11.18 -0.51
260.00 288.00 0.00 11.15 -0.50
261.00 288.00 0.00 11.11 -0.50
262.00 288.00 0.00 11.08 -0.50
263.00 288.00 0.00 11.04 -0.49
264.00 288.00 0.00 11.01 -0.49
265.00 288.00 0.00 10.97 -0.48
266.00 288.00 0.00 10.94 -0.48
267.00 288.00 0.00 10.90 -0.47
268.00 288.00 0.00 10.87 -0.47
269.00 288.00 0.00 10.83 -0.47
270.00 288.00 0.00 10.80 -0.46
271.00 288.00 0.00 10.76 -0.46
272.00 288.00 0.00 10.73 -0.45
273.00 288.00 0.00 10.69 -0.45
274.00 288.00 0.00 10.66 -0.44
275.00 288.00 0.00 10.62 -0.44
276.00 288.00 0.00 10.59 -0.44
277.00 288.00 0.00 10.55 -0.43
278.00 288.00 0.00 10.52 -0.43
279.00 288.00 0.00 10.48 -0.42
280.00 288.00 0.00 10.45 -0.42
281.00 288.00 0.00 10.41 -0.41
282.00 288.00 0.00 10.38 -0.41
283.00 288.00 0.00 10.34 -0.41
284.00 288.00 0.00 10.31 -0.40
285.00 288.00 0.00 10.27 -0.40
286.00 288.00 0.00 10.24 -0.39
287.00 288.00 0.00 10.20 -0.39
288.00 288.00 0.00 10.17 -0.38
289.00 288.00 0.00 10.13 -0.38
290.00 288.00 0.00 10.10 -0.38
291.00 288.00 0.00 10.06 -0.37
292.00 288.00 0.00 10.03 -0.37
293.00 288.00 0.00 9.99 -0.36
294.00 288.00 0.00 9.96 -0.36
295.00 288.00 0.00 9.92 -0.35
296.00 288.00 0.00 9.89 -0.35
297.00 288.00 0.00 9.85 -0.35
298.00 288.00 0.00 9.82 -0.34
299.00 288.00 0.00 9.78 -0.34
300.00 288.00 0.00 9.75 -0.33
301.00 288.00 0.00 9.71 -0.33
302.00 288.00 0.00 9.68 -0.32
303.00 288.00 0.00 9.64 -0.32
304.00 288.00 0.00 9.61 -0.32
305.00 288.00 0.00 9.57 -0.31
306.00 288.00 0.00 9.54 -0.31
307.00 288.00 0.00 9.50 -0.30
308.00 288.00 0.00 9.47 -0.30
309.00 288.00 0.00 9.43 -0.29
310.00 288.00 0.00 9.40 -0.29
311.00 288.00 0.00 9.36 -0.29
312.00 288.00 0.00 9.33 -0.28
313.00 288.00 0.00 9.29 -0.28
314.00 288.00 0.00 9.26 -0.27
315.00 288.00 0.00 9.22 -0.27
316.00 288.00 0.00 9.19 -0.27
317.00 288.00 0.00 9.15 -0.26
318.00 288.00 0.00 9.12 -0.26
319.00 288.00 0.00 9.08 -0.25
320.00 288.00 0.00 9.05 -0.25
321.00 288.00 0.00 9.01 -0.24
322.00 288.00 0.00 8.98 -0.24
323.00 288.00 0.00 8.94 -0.24
324.00 288.00 0.00 8.91 -0.23
325.00 288.00 0.00 8.87 -0.23
326.00 288.00 0.00 8.84 -0.22
327.00 288.00 0.00 8.80 -0.22
328.00 288.00 0.00 8.77 -0.21
329.00 288.00 0.00 8.73 -0.21
330.00 288.00 0.00 8.70 -0.21
331.00 288.00 0.00 8.66 -0.20
332.00 288.00 0.00 8.63 -0.20
333.00 288.00 0.00 8.59 -0.19
334.00 288.00 0.00 8.56 -0.19
335.00 288.00 0.00 8.52 -0.18
336.00 288.00 0.00 8.49 -0.18
337.00 288.00 0.00 8.45 -0.18
338.00 288.00 0.00 8.42 -0.17
339.00 288.00 0.00 8.38 -0.17
340.00 288.00 0.00 8.35 -0.16
341.00 288.00 0.00 8.31 -0.16
342.00 288.00 0.00 8.28 -0.15
343.00 288.00 0.00 8.24 -0.15
344.00 288.00 0.00 8.21 -0.15
345.00 288.00 0.00 8.17 -0.14
346.00 288.00 0.00 8.14 -0.14
347.00 288.00 0.00 8.10 -0.13
348.00 288.00 0.00 8.07 -0.13
349.00 288.00 0.00 8.03 -0.12
350.00 288.00 0.00 8.00 -0.12
351.00 288.00 0.00 7.96 -0.12
352.00 288.00 0.00 7.93 -0.11
353.00 288.00 0.00 7.89 -0.11
354.00 288.00 0.00 7.86 -0.10
355.00 288.00 0.00 7.82 -0.10
356.00 288.00 0.00 7.79 -0.09
357.00 288.00 0.00 7.75 -0.09
358.00 288.00 0.00 7.72 -0.09
359.00 288.00 0.00 7.68 -0.08
360.00 288.00 0.00 7.65 -0.08
361.00 288.00 0.00 7.61 -0.07
362.00 288.00 0.00 7.58 -0.07
363.00 288.00 0.00 7.54 -0.06
364.00 288.00 0.00 7.51 -0.06
365.00 288.00 0.00 7.47 -0.06
366.00 288.00 0.00 7.44 -0.05
367.00 288.00 0.00 7.40 -0.05
368.00 288.00 0.00 7.37 -0.04
369.00 288.00 0.00 7.33 -0.04
370.00 288.00 0.00 7.30 -0.03
371.00 288.00 0.00 7.26 -0.03
372.00 288.00 0.00 7.23 -0.03
373.00 288.00 0.00 7.19 -0.02
374.00 288.00 0.00 7.16 -0.02
375.00 288.00 0.00 7.12 -0.01
376.00 288.00 0.00 7.09 -0.01
377.00 288.00 0.00 7.05 -0.00
378.00 288.00 0.00 7.02 0.00
379.00 288.00 0.00 6.98 0.00
380.00 288.00 0.00 6.95 0.01
381.00 288.00 0.00 6.91 0.01
382.00 288.00 0.00 6.88 0.02
383.00 288.00 0.00 6.84 0.02
384.00 288.00 0.00 6.81 0.03
385.00 288.00 0.00 6.77 0.03
386.00 288.00 0.00 6.74 0.03
387.00 288.00 0.00 6.70 0.04
388.00 288.00 0.00 6.67 0.04
389.00 288.00 0.00 6.63 0.05
390.00 288.00 0.00 6.60 0.05
391.00 288.00 0.00 6.56 0.06
392.00 288.00 0.00 6.53 0.06
393.00 288.00 0.00 6.49 0.06
394.00 288.00 0.00 6.46 0.07
395.00 288.00 0.00 6.42 0.07
396.00 288.00 0.00 6.39 0.08
397.00 288.00 0.00 6.35 0.08
398.00 288.00 0.00 6.32 0.09
399.00 288.00 0.00 6.28 0.09
400.00 288.00 0.00 6.25 0.09
401.00 288.00 0.00 6.21 0.10
402.00 288.00 0.00 6.18 0.10
403.00 288.00 0.00 6.14 0.11
404.00 288.00 0.00 6.11 0.11
405.00 288.00 0.00 6.07 0.12
406.00 288.00 0.00 6.04 0.12
407.00 288.00 0.00 6.00 0.12
408.00 288.00 0.00 5.97 0.13
409.00 288.00 0.00 5.93 0.13
410.00 288.00 0.00 5.90 0.14
411.00 288.00 0.00 5.86 0.14
412.00 288.00 0.00 5.83 0.15
413.00 288.00 0.00 5.79 0.15
414.00 288.00 0.00 5.76 0.15
415.00 288.00 0.00 5.72 0.16
416.00 288.00 0.00 5.69 0.16
417.00 288.00 0.00 5.65 0.17
418.00 288.00 0.00 5.62 0.17
419.00 288.00 0.00 5.58 0.18
420.00 288.00 0.00 5.55 0.18
421.00 288.00 0.00 5.51 0.18
422.00 288.00 0.00 5.48 0.19
423.00 288.00 0.00 5.44 0.19
424.00 288.00 0.00 5.41 0.20
425.00 288.00 0.00 5.37 0.20
426.00 288.00 0.00 5.34 0.21
427.00 288.00 0.00 5.30 0.21
428.00 288.00 0.00 5.27 0.21
429.00 288.00 0.00 5.23 0.22
430.00 288.00 0.00 5.20 0.22
431.00 288.00 0.00 5.16 0.23
432.00 288.00 0.00 5.13 0.23
433.00 288.00 0.00 5.09 0.24
434.00 288.00 0.00 5.06 0.24
435.00 288.00 0.00 5.02 0.24
436.00 288.00 0.00 4.99 0.25
437.00 288.00 0.00 4.95 0.25
438.00 288.00 0.00 4.92 0.26
439.00 288.00 0.00 4.88 0.26
440.00 288.00 0.00 4.85 0.27
441.00 288.00 0.00 4.81 0.27
442.00 288.00 0.00 4.78 0.27
443.00 288.00 0.00 4.74 0.28
444.00 288.00 0.00 4.71 0.28
445.00 288.00 0.00 4.67 0.29
446.00 288.00 0.00 4.64 0.29
447.00 288.00 0.00 4.60 0.29
448.00 288.00 0.00 4.57 0.30
449.00 288.00 0.00 4.53 0.30
450.00 288.00 0.00 4.50 0.31
451.00 288.00 0.00 4.46 0.31
452.00 288.00 0.00 4.43 0.32
453.00 288.00 0.00 4.39 0.32
454.00 288.00 0.00 4.36 0.32
455.00 288.00 0.00 4.32 0.33
456.00 288.00 0.00 4.29 0.33
457.00 288.00 0.00 4.25 0.34
458.00 288.00 0.00 4.22 0.34
459.00 288.00 0.00 4.18 0.35
460.00 288.00 0.00 4.15 0.35
461.00 288.00 0.00 4.11 0.35
462.00 288.00 0.00 4.08 0.36
463.00 288.00 0.00 4.04 0.36
464.00 288.00 0.00 4.01 0.37
465.00 288.00 0.00 3.97 0.37
466.00 288.00 0.00 3.94 0.38
467.00 288.00 0.00 3.90 0.38
468.00 288.00 0.00 3.87 0.38
469.00 288.00 0.00 3.83 0.39
470.00 288.00 0.00 3.80 0.39
471.00 288.00 0.00 3.76 0.40
472.00 288.00 0.00 3.73 0.40
473.00 288.00 0.00 3.69 0.41
474.00 288.00 0.00 3.66 0.41
475.00 288.00 0.00 3.62 0.41
476.00 288.00 0.00 3.59 0.42
477.00 288.00 0.00 3.55 0.42
478.00 288.00 0.00 3.52 0.43
479.00 288.00 0.00 3.48 0.43
480.00 288.00 0.00 3.45 0.44
481.00 288.00 0.00 3.41 0.44
482.00 288.00 0.00 3.38 0.44
483.00 288.00 0.00 3.34 0.45
484.00 288.00 0.00 3.31 0.45
485.00 288.00 0.00 3.27 0.46
486.00 288.00 0.00 3.24 0.46
487.00 288.00 0.00 3.20 0.47
488.00 288.00 0.00 3.17 0.47
489.00 288.00 0.00 3.13 0.47
490.00 288.00 0.00 3.10 0.48
491.00 288.00 0.00 3.06 0.48
492.00 288.00 0.00 3.03 0.49
493.00 288.00 0.00 2.99 0.49
494.00 288.00 0.00 2.96 0.50
495.00 288.00 0.00 2.92 0.50
496.00 288.00 0.00 2.89 0.50
497.00 288.00 0.00 2.85 0.51
498.00 288.00 0.00 2.82 0.51
499.00 288.00 0.00 2.78 0.52
500.00 288.00 0.00 2.75 0.52
501.00 288.00 0.00 2.71 0.53
502.00 288.00 0.00 2.68 0.53
503.00 288.00 0.00 2.64 0.53
504.00 288.00 0.00 2.61 0.54
505.00 288.00 0.00 2.57 0.54
506.00 288.00 0.00 2.54 0.55
507.00 288.00 0.00 2.51 0.55
508.00 288.00 0.00 2.47 0.55
509.00 288.00 0.00 2.44 0.56
510.00 288.00 0.00 2.41 0.56
511.00 288.00 0.00 2.37 0.57
512.00 288.00 0.00 2.34 0.57
513.00 288.00 0.00 2.31 0.57
514.00 288.00 0.00 2.28 0.58
515.00 288.00 0.00 2.24 0.58
516.00 288.00 0.00 2.21 0.59
517.00 288.00 0.00 2.18 0.59
518.00 288.00 0.00 2.15 0.59
519.00 288.00 0.00 2.12 0.60
520.00 288.00 0.00 2.09 0.60
521.00 288.00 0.00 2.05 0.61
522.00 288.00 0.00 2.02 0.61
523.00 288.00 0.00 1.99 0.61
524.00 288.00 0.00 1.96 0.62
525.00 288.00 0.00 1.93 0.62
526.00 288.00 0.00 1.90 0.62
527.00 288.00 0.00 1.87 0.63
528.00 288.00 0.00 1.84 0.63
529.00 288.00 0.00 1.81 0.63
530.00 288.00 0.00 1.78 0.64
531.00 288.00 0.00 1.75 0.64
532.00 288.00 0.00 1.73 0.65
533.00 288.00 0.00 1.70 0.65
534.00 288.00 0.00 1.67 0.65
535.00 288.00 0.00 1.64 0.66
536.00 288.00 0.00 1.61 0.66
537.00 288.00 0.00 1.58 0.66
538.00 288.00 0.00 1.56 0.67
539.00 288.00 0.00 1.53 0.67
540.00 288.00 0.00 1.50 0.67
541.00 288.00 0.00 1.47 0.68
542.00 288.00 0.00 1.45 0.68
543.00 288.00 0.00 1.42 0.68
544.00 288.00 0.00 1.39 0.69
545.00 288.00 0.00 1.37 0.69
546.00 288.00 0.00 1.34 0.69
547.00 288.00 0.00 1.31 0.70
548.00 288.00 0.00 1.29 0.70
549.00 288.00 0.00 1.26 0.70
550.00 288.00 0.00 1.24 0.70
551.00 288.00 0.00 1.21 0.71
552.00 288.00 0.00 1.19 0.71
553.00 288.00 0.00 1.16 0.71
554.00 288.00 0.00 1.14 0.72
555.00 288.00 0.00 1.11 0.72
556.00 288.00 0.00 1.09 0.72
557.00 288.00 0.00 1.07 0.73
558.00 288.00 0.00 1.04 0.73
559.00 288.00 0.00 1.02 0.73
560.00 288.00 0.00 0.99 0.73
561.00 288.00 0.00 0.97 0.74
562.00 288.00 0.00 0.95 0.74
563.00 288.00 0.00 0.92 0.74
564.00 288.00 0.00 0.90 0.74
565.00 288.00 0.00 0.88 0.75
566.00 288.00 0.00 0.86 0.75
567.00 288.00 0.00 0.84 0.75
568.00 288.00 0.00 0.81 0.76
569.00 288.00 0.00 0.79 0.76
570.00 288.00 0.00 0.77 0.76
571.00 288.00 0.00 0.75 0.76
572.00 288.00 0.00 0.73 0.77
573.00 288.00 0.00 0.71 0.77
574.00 288.00 0.00 0.69 0.77
575.00 288.00 0.00 0.67 0.77
576.00 288.00 0.00 0.64 0.78
577.00 288.00 0.00 0.62 0.78
578.00 288.00 0.00 0.60 0.78
579.00 288.00 0.00 0.58 0.78
580.00 288.00 0.00 0.57 0.79
581.00 288.00 0.00 0.55 0.79
582.00 288.00 0.00 0.53 0.79
583.00 288.00 0.00 0.51 0.79
584.00 288.00 0.00 0.49 0.79
585.00 288.00 0.00 0.47 0.80
586.00 288.00 0.00 0.45 0.80
587.00 288.00 0.00 0.43 0.80
588.00 288.00 0.00 0.42 0.80
589.00 288.00 0.00 0.40 0.81
590.00 288.00 0.00 0.38 0.81
591.00 288.00 0.00 0.36 0.81
592.00 288.00 0.00 0.35 0.81
593.00 288.00 0.00 0.33 0.81
594.00 288.00 0.00 0.31 0.82
595.00 288.00 0.00 0.29 0.82
596.00 288.00 0.00 0.28 0.82
597.00 288.00 0.00 0.26 0.82
598.00 288.00 0.00 0.25 0.82
599.00 288.00 0.00 0.23 0.83
600.00 288.00 0.00 0.21 0.83
601.00 288.00 0.00 0.20 0.83
602.00 288.00 0.00 0.18 0.83
603.00 288.00 0.00 0.17 0.83
604.00 288.00 0.00 0.15 0.84
605.00 288.00 0.00 0.14 0.84
606.00 288.00 0.00 0.12 0.84
607.00 288.00 0.00 0.11 0.84
608.00 288.00 0.00 0.10 0.84
609.00 288.00 0.00 0.08 0.84
610.00 288.00 0.00 0.07 0.85
611.00 288.00 0.00 0.05 0.85
612.00 288.00 0.00 0.04 0.85
613.00 288.00 0.00 0.03 0.85
614.00 288.00 0.00 0.01 0.85
615.00 288.00 0.00 0.00 0.85
616.00 288.00 0.00 -0.01 0.86
617.00 288.00 0.00 -0.02 0.86
618.00 288.00 0.00 -0.04 0.86
619.00 288.00 0.00 -0.05 0.86
620.00 288.00 0.00 -0.06 0.86
621.00 288.00 0.00 -0.07 0.86
622.00 288.00 0.00 -0.08 0.86
623.00 288.00 0.00 -0.09 0.87
624.00 288.00 0.00 -0.10 0.87
625.00 288.00 0.00 -0.11 0.87
626.00 288.00 0.00 -0.13 0.87
627.00 288.00 0.00 -0.14 0.87
628.00 288.00 0.00 -0.15 0.87
629.00 288.00 0.00 -0.16 0.87
630.00 288.00 0.00 -0.17 0.87
631.00 288.00 0.00 -0.18 0.87
632.00 288.00 0.00 -0.19 0.88
633.00 288.00 0.00 -0.19 0.88
634.00 288.00 0.00 -0.20 0.88
635.00 288.00 0.00 -0.21 0.88
636.00 288.00 0.00 -0.22 0.88
637.00 288.00 0.00 -0.23 0.88
638.00 288.00 0.00 -0.24 0.88
639.00 288.00 0.00 -0.25 0.88
640.00 288.00 0.00 -0.25 0.88
641.00 288.00 0.00 -0.26 0.89
642.00 288.00 0.00 -0.27 0.89
643.00 288.00 0.00 -0.28 0.89
644.00 288.00 0.00 -0.28 0.89
645.00 288.00 0.00 -0.29 0.89
646.00 288.00 0.00 -0.30 0.89
647.00 288.00 0.00 -0.30 0.89
648.00 288.00 0.00 -0.31 0.89
649.00 288.00 0.00 -0.32 0.89
650.00 288.00 0.00 -0.32 0.89
651.00 288.00 0.00 -0.33 0.89
652.00 288.00 0.00 -0.33 0.89
653.00 288.00 0.00 -0.34 0.89
654.00 288.00 0.00 -0.34 0.90
655.00 288.00 0.00 -0.35 0.90
656.00 288.00 0.00 -0.35 0.90
657.00 288.00 0.00 -0.36 0.90
658.00 288.00 0.00 -0.36 0.90
659.00 288.00 0.00 -0.37 0.90
660.00 288.00 0.00 -0.37 0.90
661.00 288.00 0.00 -0.38 0.90
662.00 288.00 0.00 -0.38 0.90
663.00 288.00 0.00 -0.38 0.90
664.00 288.00 0.00 -0.39 0.90
665.00 288.00 0.00 -0.39 0.90
666.00 288.00 0.00 -0.39 0.90
667.00 288.00 0.00 -0.39 0.90
668.00 288.00 0.00 -0.40 0.90
669.00 288.00 0.00 -0.40 0.90
670.00 288.00 0.00 -0.40 0.90
671.00 288.00 0.00 -0.40 0.90
672.00 288.00 0.00 -0.40 0.90
673.00 288.00 0.00 -0.41 0.90
674.00 288.00 0.00 -0.41 0.90
675.00 288.00 0.00 -0.41 0.90
676.00 288.00 0.00 -0.41 0.90
677.00 288.00 0.00 -0.41 0.90
678.00 288.00 0.00 -0.41 0.90
679.00 288.00 0.00 -0.41 0.90
680.00 288.00 0.00 -0.41 0.90
681.00 288.00 0.00 -0.41 0.90
682.00 288.00 0.00 -0.41 0.90
683.00 288.00 0.00 -0.41 0.90
684.00 288.00 0.00 -0.41 0.90
685.00 288.00 0.00 -0.41 0.90
686.00 288.00 0.00 -0.41 0.90
687.00 288.00 0.00 -0.41 0.90
688.00 288.00 0.00 -0.41 0.90
689.00 288.00 0.00 -0.41 0.90
690.00 288.00 0.00 -0.41 0.90
691.00 288.00 0.00 -0.41 0.90
692.00 288.00 0.00 -0.41 0.90
693.00 288.00 0.00 -0.41 0.90
694.00 288.00 0.00 -0.41 0.90
695.00 288.00 0.00 -0.41 0.90
696.00 288.00 0.00 -0.41 0.90
697.00 288.00 0.00 -0.41 0.90
698.00 288.00 0.00 -0.41 0.90
699.00 288.00 0.00 -0.41 0.90
700.00 288.00 0.00 -0.41 0.90
701.00 288.00 0.00 -0.41 0.90
702.00 288.00 0.00 -0.41 0.90
703.00 288.00 0.00 -0.41 0.90
704.00 288.00 0.00 -0.41 0.90
705.00 288.00 0.00 -0.41 0.90
706.00 288.00 0.00 -0.41 0.90
707.00 288.00 0.00 -0.41 0.90
708.00 288.00 0.00 -0.41 0.90
709.00 288.00 0.00 -0.41 0.90
710.00 288.00 0.00 -0.41 0.90
711.00 288.00 0.00 -0.41 0.90
712.00 288.00 0.00 -0.41 0.90
713.00 288.00 0.00 -0.41 0.90
714.00 288.00 0.00 -0.41 0.90
715.00 288.00 0.00 -0.41 0.90
716.00 288.00 0.00 -0.41 0.90
717.00 288.00 0.00 -0.41 0.90
718.00 288.00 0.00 -0.41 0.90
719.00 288.00 0.00 -0.41 0.90
720.00 288.00 0.00 -0.41 0.90
721.00 288.00 0.00 -0.41 0.90
722.00 288.00 0.00 -0.41 0.90
723.00 288.00 0.00 -0.41 0.90
724.00 288.00 0.00 -0.41 0.90
725.00 288.00 0.00 -0.41 0.90
726.00 288.00 0.00 -0.41 0.90
727.00 288.00 0.00 -0.41 0.90
728.00 288.00 0.00 -0.41 0.90
729.00 288.00 0.00 -0.41 0.90
730.00 288.00 0.00 -0.41 0.90
731.00 288.00 0.00 -0.41 0.90
732.00 288.00 0.00 -0.41 0.90
733.00 288.00 0.00 -0.41 0.90
734.00 288.00 0.00 -0.41 0.90
735.00 288.00 0.00 -0.41 0.90
736.00 288.00 0.00 -0.41 0.90
737.00 288.00 0.00 -0.41 0.90
738.00 288.00 0.00 -0.41 0.90
739.00 288.00 0.00 -0.41 0.90
740.00 288.00 0.00 -0.41 0.90
741.00 288.00 0.00 -0.41 0.90
742.00 288.00 0.00 -0.41 0.90
743.00 288.00 0.00 -0.41 0.90
744.00 288.00 0.00 -0.41 0.90
745.00 288.00 0.00 -0.41 0.90
746.00 288.00 0.00 -0.41 0.90
747.00 288.00 0.00 -0.41 0.90
748.00 288.00 0.00 -0.41 0.90
749.00 288.00 0.00 -0.41 0.90
750.00 288.00 0.00 -0.41 0.90
751.00 288.00 0.00 -0.41 0.90
752.00 288.00 0.00 -0.41 0.90
753.00 288.00 0.00 -0.41 0.90
754.00 288.00 0.00 -0.41 0.90
755.00 288.00 0.00 -0.41 0.90
756.00 288.00 0.00 -0.41 0.90
757.00 288.00 0.00 -0.41 0.90
758.00 288.00 0.00 -0.41 0.90
759.00 288.00 0.00 -0.41 0.90
760.00 288.00 0.00 -0.41 0.90
761.00 288.00 0.00 -0.41 0.90
762.00 288.00 0.00 -0.41 0.90
763.00 288.00 0.00 -0.41 0.90
764.00 288.00 0.00 -0.41 0.90
765.00 288.00 0.00 -0.41 0.90
766.00 288.00 0.00 -0.41 0.90
767.00 288.00 0.00 -0.41 0.90
768.00 288.00 0.00 -0.41 0.90
769.00 288.00 0.00 -0.41 0.90
770.00 288.00 0.00 -0.41 0.90
771.00 288.00 0.00 -0.41 0.90
772.00 288.00 0.00 -0.41 0.90
773.00 288.00 0.00 -0.41 0.90
774.00 288.00 0.00 -0.41 0.90
775.00 288.00 0.00 -0.41 0.90
776.00 288.00 0.00 -0.41 0.90
777.00 288.00 0.00 -0.41 0.90
778.00 288.00 0.00 -0.41 0.90
779.00 288.00 0.00 -0.41 0.90
780.00 288.00 0.00 -0.41 0.90
781.00 288.00 0.00 -0.41 0.90
782.00 288.00 0.00 -0.41 0.90
783.00 288.00 0.00 -0.41 0.90
784.00 288.00 0.00 -0.41 0.90
785.00 288.00 0.00 -0.41 0.90
786.00 288.00 0.00 -0.41 0.90
787.00 288.00 0.00 -0.41 0.90
788.00 288.00 0.00 -0.41 0.90
789.00 288.00 0.00 -0.41 0.90
790.00 288.00 0.00 -0.41 0.90
791.00 288.00 0.00 -0.41 0.90
792.00 288.00 0.00 -0.41 0.90
793.00 288.00 0.00 -0.41 0.90
794.00 288.00 0.00 -0.41 0.90
795.00 288.00 0.00 -0.41 0.90
796.00 288.00 0.00 -0.41 0.90
797.00 288.00 0.00 -0.41 0.90
798.00 288.00 0.00 -0.41 0.90
799.00 288.00 0.00 -0.41 0.90
800.00 288.00 0.00 -0.41 0.90
801.00 288.00 0.00 -0.41 0.90
802.00 288.00 0.00 -0.41 0.90
803.00 288.00 0.00 -0.41 0.90
804.00 288.00 0.00 -0.41 0.90
805.00 288.00 0.00 -0.41 0.90
806.00 288.00 0.00 -0.41 0.90
807.00 288.00 0.00 -0.41 0.90
808.00 288.00 0.00 -0.41 0.90
809.00 288.00 0.00 -0.41 0.90
810.00 288.00 0.00 -0.41 0.90
811.00 288.00 0.00 -0.41 0.90
812.00 288.00 0.00 -0.41 0.90
813.00 288.00 0.00 -0.41 0.90
814.00 288.00 0.00 -0.41 0.90
815.00 288.00 0.00 -0.41 0.90
816.00 288.00 0.00 -0.41 0.90
817.00 288.00 0.00 -0.41 0.90
818.00 288.00 0.00 -0.41 0.90
819.00 288.00 0.00 -0.41 0.90
820.00 288.00 0.00 -0.41 0.90
821.00 288.00 0.00 -0.41 0.90
822.00 288.00 0.00 -0.41 0.90
823.00 288.00 0.00 -0.41 0.90
824.00 288.00 0.00 -0.41 0.90
825.00 288.00 0.00 -0.41 0.90
826.00 288.00 0.00 -0.41 0.90
827.00 288.00 0.00 -0.41 0.90
828.00 288.00 0.00 -0.41 0.90
829.00 288.00 0.00 -0.41 0.90
830.00 288.00 0.00 -0.41 0.90
831.00 288.00 0.00 -0.41 0.90
