1000.00 288.00 00.00
0.00 288.00 0.00 7.87 2.10
1.00 288.00 0.00 7.87 2.10
2.00 288.00 0.00 7.87 2.10
3.00 288.00 0.00 7.87 2.10
4.00 288.00 0.00 7.87 2.10
5.00 288.00 0.00 7.87 2.10
6.00 288.00 0.00 7.87 2.10
7.00 288.00 0.00 7.87 2.10
8.00 288.00 0.00 7.87 2.10
9.00 288.00 0.00 7.87 2.10
10.00 288.00 0.00 7.87 2.10
11.00 288.00 0.00 7.87 2.10
12.00 288.00 0.00 7.87 2.10
13.00 288.00 0.00 7.87 2.10
14.00 288.00 0.00 7.87 2.10
15.00 288.00 0.00 7.87 2.10
16.00 288.00 0.00 7.87 2.10
17.00 288.00 0.00 7.87 2.10
18.00 288.00 0.00 7.87 2.10
19.00 288.00 0.00 7.87 2.10
20.00 288.00 0.00 7.87 2.10
21.00 288.00 0.00 7.87 2.10
22.00 288.00 0.00 7.87 2.10
23.00 288.00 0.00 7.87 2.10
24.00 288.00 0.00 7.87 2.10
25.00 288.00 0.00 7.87 2.10
26.00 288.00 0.00 7.87 2.10
27.00 288.00 0.00 7.87 2.10
28.00 288.00 0.00 7.87 2.10
29.00 288.00 0.00 7.87 2.10
30.00 288.00 0.00 7.87 2.10
31.00 288.00 0.00 7.87 2.10
32.00 288.00 0.00 7.87 2.10
33.00 288.00 0.00 7.87 2.10
34.00 288.00 0.00 7.87 2.10
35.00 288.00 0.00 7.87 2.10
36.00 288.00 0.00 7.87 2.10
37.00 288.00 0.00 7.87 2.10
38.00 288.00 0.00 7.87 2.10
39.00 288.00 0.00 7.87 2.10
40.00 288.00 0.00 7.87 2.10
41.00 288.00 0.00 7.87 2.10
42.00 288.00 0.00 7.87 2.10
43.00 288.00 0.00 7.87 2.10
44.00 288.00 0.00 7.87 2.10
45.00 288.00 0.00 7.87 2.10
46.00 288.00 0.00 7.87 2.10
47.00 288.00 0.00 7.87 2.10
48.00 288.00 0.00 7.87 2.10
49.00 288.00 0.00 7.87 2.10
50.00 288.00 0.00 7.87 2.10
51.00 288.00 0.00 7.87 2.10
52.00 288.00 0.00 7.87 2.10
53.00 288.00 0.00 7.87 2.10
54.00 288.00 0.00 7.87 2.10
55.00 288.00 0.00 7.87 2.10
56.00 288.00 0.00 7.87 2.10
57.00 288.00 0.00 7.87 2.10
58.00 288.00 0.00 7.87 2.10
59.00 288.00 0.00 7.87 2.10
60.00 288.00 0.00 7.87 2.10
61.00 288.00 0.00 7.87 2.10
62.00 288.00 0.00 7.87 2.10
63.00 288.00 0.00 7.87 2.10
64.00 288.00 0.00 7.87 2.10
65.00 288.00 0.00 7.87 2.10
66.00 288.00 0.00 7.87 2.10
67.00 288.00 0.00 7.87 2.10
68.00 288.00 0.00 7.87 2.10
69.00 288.00 0.00 7.87 2.10
70.00 288.00 0.00 7.87 2.10
71.00 288.00 0.00 7.87 2.10
72.00 288.00 0.00 7.87 2.10
73.00 288.00 0.00 7.87 2.10
74.00 288.00 0.00 7.87 2.10
75.00 288.00 0.00 7.87 2.10
76.00 288.00 0.00 7.87 2.10
77.00 288.00 0.00 7.87 2.10
78.00 288.00 0.00 7.87 2.10
79.00 288.00 0.00 7.87 2.10
80.00 288.00 0.00 7.87 2.10
81.00 288.00 0.00 7.87 2.10
82.00 288.00 0.00 7.87 2.10
83.00 288.00 0.00 7.87 2.10
84.00 288.00 0.00 7.87 2.10
85.00 288.00 0.00 7.87 2.10
86.00 288.00 0.00 7.87 2.10
87.00 288.00 0.00 7.87 2.10
88.00 288.00 0.00 7.87 2.10
89.00 288.00 0.00 7.87 2.10
90.00 288.00 0.00 7.87 2.10
91.00 288.00 0.00 7.87 2.10
92.00 288.00 0.00 7.87 2.10
93.00 288.00 0.00 7.87 2.10
94.00 288.00 0.00 7.87 2.10
95.00 288.00 0.00 7.87 2.10
96.00 288.00 0.00 7.87 2.10
97.00 288.00 0.00 7.87 2.10
98.00 288.00 0.00 7.87 2.10
99.00 288.00 0.00 7.87 2.10
100.00 288.00 0.00 7.87 2.10
101.00 288.00 0.00 7.87 2.10
102.00 288.00 0.00 7.87 2.10
103.00 288.00 0.00 7.87 2.10
104.00 288.00 0.00 7.87 2.10
105.00 288.00 0.00 7.87 2.10
106.00 288.00 0.00 7.87 2.10
107.00 288.00 0.00 7.87 2.10
108.00 288.00 0.00 7.87 2.10
109.00 288.00 0.00 7.87 2.10
110.00 288.00 0.00 7.87 2.10
111.00 288.00 0.00 7.87 2.10
112.00 288.00 0.00 7.87 2.10
113.00 288.00 0.00 7.87 2.10
114.00 288.00 0.00 7.87 2.10
115.00 288.00 0.00 7.87 2.10
116.00 288.00 0.00 7.87 2.10
117.00 288.00 0.00 7.87 2.10
118.00 288.00 0.00 7.87 2.10
119.00 288.00 0.00 7.87 2.10
120.00 288.00 0.00 7.87 2.10
121.00 288.00 0.00 7.87 2.10
122.00 288.00 0.00 7.87 2.10
123.00 288.00 0.00 7.87 2.10
124.00 288.00 0.00 7.87 2.10
125.00 288.00 0.00 7.87 2.10
126.00 288.00 0.00 7.87 2.10
127.00 288.00 0.00 7.87 2.10
128.00 288.00 0.00 7.87 2.10
129.00 288.00 0.00 7.87 2.10
130.00 288.00 0.00 7.87 2.10
131.00 288.00 0.00 7.87 2.10
132.00 288.00 0.00 7.87 2.09
133.00 288.00 0.00 7.87 2.09
134.00 288.00 0.00 7.87 2.09
135.00 288.00 0.00 7.87 2.09
136.00 288.00 0.00 7.87 2.09
137.00 288.00 0.00 7.87 2.09
138.00 288.00 0.00 7.87 2.09
139.00 288.00 0.00 7.87 2.08
140.00 288.00 0.00 7.87 2.08
141.00 288.00 0.00 7.87 2.08
142.00 288.00 0.00 7.86 2.08
143.00 288.00 0.00 7.86 2.08
144.00 288.00 0.00 7.86 2.08
145.00 288.00 0.00 7.86 2.07
146.00 288.00 0.00 7.86 2.07
147.00 288.00 0.00 7.86 2.07
148.00 288.00 0.00 7.86 2.07
149.00 288.00 0.00 7.86 2.06
150.00 288.00 0.00 7.86 2.06
151.00 288.00 0.00 7.86 2.06
152.00 288.00 0.00 7.86 2.06
153.00 288.00 0.00 7.85 2.06
154.00 288.00 0.00 7.85 2.05
155.00 288.00 0.00 7.85 2.05
156.00 288.00 0.00 7.85 2.05
157.00 288.00 0.00 7.85 2.04
158.00 288.00 0.00 7.85 2.04
159.00 288.00 0.00 7.85 2.04
160.00 288.00 0.00 7.85 2.04
161.00 288.00 0.00 7.84 2.03
162.00 288.00 0.00 7.84 2.03
163.00 288.00 0.00 7.84 2.03
164.00 288.00 0.00 7.84 2.02
165.00 288.00 0.00 7.84 2.02
166.00 288.00 0.00 7.84 2.02
167.00 288.00 0.00 7.84 2.01
168.00 288.00 0.00 7.83 2.01
169.00 288.00 0.00 7.83 2.01
170.00 288.00 0.00 7.83 2.00
171.00 288.00 0.00 7.83 2.00
172.00 288.00 0.00 7.83 1.99
173.00 288.00 0.00 7.83 1.99
174.00 288.00 0.00 7.83 1.99
175.00 288.00 0.00 7.82 1.98
176.00 288.00 0.00 7.82 1.98
177.00 288.00 0.00 7.82 1.98
178.00 288.00 0.00 7.82 1.97
179.00 288.00 0.00 7.82 1.97
180.00 288.00 0.00 7.81 1.96
181.00 288.00 0.00 7.81 1.96
182.00 288.00 0.00 7.81 1.95
183.00 288.00 0.00 7.81 1.95
184.00 288.00 0.00 7.81 1.94
185.00 288.00 0.00 7.81 1.94
186.00 288.00 0.00 7.80 1.94
187.00 288.00 0.00 7.80 1.93
188.00 288.00 0.00 7.80 1.93
189.00 288.00 0.00 7.80 1.92
190.00 288.00 0.00 7.80 1.92
191.00 288.00 0.00 7.79 1.91
192.00 288.00 0.00 7.79 1.91
193.00 288.00 0.00 7.79 1.90
194.00 288.00 0.00 7.79 1.90
195.00 288.00 0.00 7.78 1.89
196.00 288.00 0.00 7.78 1.88
197.00 288.00 0.00 7.78 1.88
198.00 288.00 0.00 7.78 1.87
199.00 288.00 0.00 7.78 1.87
200.00 288.00 0.00 7.77 1.86
201.00 288.00 0.00 7.77 1.86
202.00 288.00 0.00 7.77 1.85
203.00 288.00 0.00 7.77 1.85
204.00 288.00 0.00 7.76 1.84
205.00 288.00 0.00 7.76 1.83
206.00 288.00 0.00 7.76 1.83
207.00 288.00 0.00 7.76 1.82
208.00 288.00 0.00 7.75 1.82
209.00 288.00 0.00 7.75 1.81
210.00 288.00 0.00 7.75 1.80
211.00 288.00 0.00 7.74 1.80
212.00 288.00 0.00 7.74 1.79
213.00 288.00 0.00 7.74 1.78
214.00 288.00 0.00 7.74 1.78
215.00 288.00 0.00 7.73 1.77
216.00 288.00 0.00 7.73 1.76
217.00 288.00 0.00 7.73 1.76
218.00 288.00 0.00 7.73 1.75
219.00 288.00 0.00 7.72 1.74
220.00 288.00 0.00 7.72 1.74
221.00 288.00 0.00 7.72 1.73
222.00 288.00 0.00 7.71 1.72
223.00 288.00 0.00 7.71 1.71
224.00 288.00 0.00 7.71 1.71
225.00 288.00 0.00 7.70 1.70
226.00 288.00 0.00 7.70 1.69
227.00 288.00 0.00 7.70 1.69
228.00 288.00 0.00 7.69 1.68
229.00 288.00 0.00 7.69 1.67
230.00 288.00 0.00 7.69 1.66
231.00 288.00 0.00 7.69 1.65
232.00 288.00 0.00 7.68 1.65
233.00 288.00 0.00 7.68 1.64
234.00 288.00 0.00 7.68 1.63
235.00 288.00 0.00 7.67 1.62
236.00 288.00 0.00 7.67 1.61
237.00 288.00 0.00 7.67 1.61
238.00 288.00 0.00 7.66 1.60
239.00 288.00 0.00 7.66 1.59
240.00 288.00 0.00 7.65 1.58
241.00 288.00 0.00 7.65 1.57
242.00 288.00 0.00 7.65 1.56
243.00 288.00 0.00 7.64 1.56
244.00 288.00 0.00 7.64 1.55
245.00 288.00 0.00 7.64 1.54
246.00 288.00 0.00 7.63 1.53
247.00 288.00 0.00 7.63 1.52
248.00 288.00 0.00 7.63 1.51
249.00 288.00 0.00 7.62 1.50
250.00 288.00 0.00 7.62 1.49
251.00 288.00 0.00 7.61 1.49
252.00 288.00 0.00 7.61 1.48
253.00 288.00 0.00 7.61 1.47
254.00 288.00 0.00 7.60 1.46
255.00 288.00 0.00 7.60 1.45
256.00 288.00 0.00 7.60 1.44
257.00 288.00 0.00 7.59 1.43
258.00 288.00 0.00 7.59 1.42
259.00 288.00 0.00 7.58 1.41
260.00 288.00 0.00 7.58 1.40
261.00 288.00 0.00 7.57 1.39
262.00 288.00 0.00 7.57 1.38
263.00 288.00 0.00 7.57 1.37
264.00 288.00 0.00 7.56 1.36
265.00 288.00 0.00 7.56 1.35
266.00 288.00 0.00 7.55 1.34
267.00 288.00 0.00 7.55 1.33
268.00 288.00 0.00 7.55 1.32
269.00 288.00 0.00 7.54 1.31
270.00 288.00 0.00 7.54 1.30
271.00 288.00 0.00 7.53 1.29
272.00 288.00 0.00 7.53 1.28
273.00 288.00 0.00 7.52 1.27
274.00 288.00 0.00 7.52 1.26
275.00 288.00 0.00 7.51 1.25
276.00 288.00 0.00 7.51 1.24
277.00 288.00 0.00 7.51 1.22
278.00 288.00 0.00 7.50 1.21
279.00 288.00 0.00 7.50 1.20
280.00 288.00 0.00 7.49 1.19
281.00 288.00 0.00 7.49 1.18
282.00 288.00 0.00 7.48 1.17
283.00 288.00 0.00 7.48 1.16
284.00 288.00 0.00 7.47 1.15
285.00 288.00 0.00 7.47 1.13
286.00 288.00 0.00 7.46 1.12
287.00 288.00 0.00 7.46 1.11
288.00 288.00 0.00 7.45 1.10
289.00 288.00 0.00 7.45 1.09
290.00 288.00 0.00 7.44 1.08
291.00 288.00 0.00 7.44 1.06
292.00 288.00 0.00 7.43 1.05
293.00 288.00 0.00 7.43 1.04
294.00 288.00 0.00 7.42 1.03
295.00 288.00 0.00 7.42 1.02
296.00 288.00 0.00 7.41 1.00
297.00 288.00 0.00 7.41 0.99
298.00 288.00 0.00 7.40 0.98
299.00 288.00 0.00 7.40 0.97
300.00 288.00 0.00 7.39 0.95
301.00 288.00 0.00 7.39 0.94
302.00 288.00 0.00 7.38 0.93
303.00 288.00 0.00 7.38 0.92
304.00 288.00 0.00 7.37 0.91
305.00 288.00 0.00 7.37 0.89
306.00 288.00 0.00 7.36 0.88
307.00 288.00 0.00 7.36 0.87
308.00 288.00 0.00 7.35 0.86
309.00 288.00 0.00 7.35 0.85
310.00 288.00 0.00 7.34 0.83
311.00 288.00 0.00 7.34 0.82
312.00 288.00 0.00 7.33 0.81
313.00 288.00 0.00 7.33 0.80
314.00 288.00 0.00 7.32 0.78
315.00 288.00 0.00 7.32 0.77
316.00 288.00 0.00 7.31 0.76
317.00 288.00 0.00 7.31 0.75
318.00 288.00 0.00 7.30 0.74
319.00 288.00 0.00 7.30 0.72
320.00 288.00 0.00 7.29 0.71
321.00 288.00 0.00 7.29 0.70
322.00 288.00 0.00 7.28 0.69
323.00 288.00 0.00 7.28 0.67
324.00 288.00 0.00 7.27 0.66
325.00 288.00 0.00 7.27 0.65
326.00 288.00 0.00 7.26 0.64
327.00 288.00 0.00 7.26 0.63
328.00 288.00 0.00 7.25 0.61
329.00 288.00 0.00 7.25 0.60
330.00 288.00 0.00 7.24 0.59
331.00 288.00 0.00 7.24 0.58
332.00 288.00 0.00 7.23 0.56
333.00 288.00 0.00 7.23 0.55
334.00 288.00 0.00 7.22 0.54
335.00 288.00 0.00 7.22 0.53
336.00 288.00 0.00 7.21 0.52
337.00 288.00 0.00 7.21 0.50
338.00 288.00 0.00 7.20 0.49
339.00 288.00 0.00 7.20 0.48
340.00 288.00 0.00 7.19 0.47
341.00 288.00 0.00 7.19 0.45
342.00 288.00 0.00 7.18 0.44
343.00 288.00 0.00 7.18 0.43
344.00 288.00 0.00 7.17 0.42
345.00 288.00 0.00 7.17 0.40
346.00 288.00 0.00 7.16 0.39
347.00 288.00 0.00 7.16 0.38
348.00 288.00 0.00 7.15 0.37
349.00 288.00 0.00 7.15 0.36
350.00 288.00 0.00 7.14 0.34
351.00 288.00 0.00 7.14 0.33
352.00 288.00 0.00 7.13 0.32
353.00 288.00 0.00 7.13 0.31
354.00 288.00 0.00 7.12 0.29
355.00 288.00 0.00 7.12 0.28
356.00 288.00 0.00 7.11 0.27
357.00 288.00 0.00 7.11 0.26
358.00 288.00 0.00 7.10 0.25
359.00 288.00 0.00 7.10 0.23
360.00 288.00 0.00 7.09 0.22
361.00 288.00 0.00 7.09 0.21
362.00 288.00 0.00 7.08 0.20
363.00 288.00 0.00 7.08 0.18
364.00 288.00 0.00 7.07 0.17
365.00 288.00 0.00 7.07 0.16
366.00 288.00 0.00 7.06 0.15
367.00 288.00 0.00 7.06 0.14
368.00 288.00 0.00 7.05 0.12
369.00 288.00 0.00 7.05 0.11
370.00 288.00 0.00 7.04 0.10
371.00 288.00 0.00 7.04 0.09
372.00 288.00 0.00 7.03 0.07
373.00 288.00 0.00 7.03 0.06
374.00 288.00 0.00 7.02 0.05
375.00 288.00 0.00 7.02 0.04
376.00 288.00 0.00 7.01 0.02
377.00 288.00 0.00 7.01 0.01
378.00 288.00 0.00 7.00 0.00
379.00 288.00 0.00 7.00 -0.01
380.00 288.00 0.00 6.99 -0.02
381.00 288.00 0.00 6.99 -0.04
382.00 288.00 0.00 6.98 -0.05
383.00 288.00 0.00 6.98 -0.06
384.00 288.00 0.00 6.97 -0.07
385.00 288.00 0.00 6.97 -0.09
386.00 288.00 0.00 6.96 -0.10
387.00 288.00 0.00 6.96 -0.11
388.00 288.00 0.00 6.95 -0.12
389.00 288.00 0.00 6.95 -0.14
390.00 288.00 0.00 6.94 -0.15
391.00 288.00 0.00 6.94 -0.16
392.00 288.00 0.00 6.93 -0.17
393.00 288.00 0.00 6.93 -0.18
394.00 288.00 0.00 6.92 -0.20
395.00 288.00 0.00 6.92 -0.21
396.00 288.00 0.00 6.91 -0.22
397.00 288.00 0.00 6.91 -0.23
398.00 288.00 0.00 6.90 -0.25
399.00 288.00 0.00 6.90 -0.26
400.00 288.00 0.00 6.89 -0.27
401.00 288.00 0.00 6.89 -0.28
402.00 288.00 0.00 6.88 -0.29
403.00 288.00 0.00 6.88 -0.31
404.00 288.00 0.00 6.87 -0.32
405.00 288.00 0.00 6.87 -0.33
406.00 288.00 0.00 6.86 -0.34
407.00 288.00 0.00 6.86 -0.36
408.00 288.00 0.00 6.85 -0.37
409.00 288.00 0.00 6.85 -0.38
410.00 288.00 0.00 6.84 -0.39
411.00 288.00 0.00 6.84 -0.40
412.00 288.00 0.00 6.83 -0.42
413.00 288.00 0.00 6.83 -0.43
414.00 288.00 0.00 6.82 -0.44
415.00 288.00 0.00 6.82 -0.45
416.00 288.00 0.00 6.81 -0.47
417.00 288.00 0.00 6.81 -0.48
418.00 288.00 0.00 6.80 -0.49
419.00 288.00 0.00 6.80 -0.50
420.00 288.00 0.00 6.79 -0.52
421.00 288.00 0.00 6.79 -0.53
422.00 288.00 0.00 6.78 -0.54
423.00 288.00 0.00 6.78 -0.55
424.00 288.00 0.00 6.77 -0.56
425.00 288.00 0.00 6.77 -0.58
426.00 288.00 0.00 6.76 -0.59
427.00 288.00 0.00 6.76 -0.60
428.00 288.00 0.00 6.75 -0.61
429.00 288.00 0.00 6.75 -0.63
430.00 288.00 0.00 6.74 -0.64
431.00 288.00 0.00 6.74 -0.65
432.00 288.00 0.00 6.73 -0.66
433.00 288.00 0.00 6.73 -0.67
434.00 288.00 0.00 6.72 -0.69
435.00 288.00 0.00 6.72 -0.70
436.00 288.00 0.00 6.71 -0.71
437.00 288.00 0.00 6.71 -0.72
438.00 288.00 0.00 6.70 -0.74
439.00 288.00 0.00 6.70 -0.75
440.00 288.00 0.00 6.69 -0.76
441.00 288.00 0.00 6.69 -0.77
442.00 288.00 0.00 6.68 -0.78
443.00 288.00 0.00 6.68 -0.80
444.00 288.00 0.00 6.67 -0.81
445.00 288.00 0.00 6.67 -0.82
446.00 288.00 0.00 6.66 -0.83
447.00 288.00 0.00 6.66 -0.85
448.00 288.00 0.00 6.65 -0.86
449.00 288.00 0.00 6.65 -0.87
450.00 288.00 0.00 6.64 -0.88
451.00 288.00 0.00 6.64 -0.89
452.00 288.00 0.00 6.63 -0.91
453.00 288.00 0.00 6.63 -0.92
454.00 288.00 0.00 6.62 -0.93
455.00 288.00 0.00 6.62 -0.94
456.00 288.00 0.00 6.61 -0.95
457.00 288.00 0.00 6.61 -0.97
458.00 288.00 0.00 6.60 -0.98
459.00 288.00 0.00 6.60 -0.99
460.00 288.00 0.00 6.59 -1.00
461.00 288.00 0.00 6.59 -1.02
462.00 288.00 0.00 6.58 -1.03
463.00 288.00 0.00 6.58 -1.04
464.00 288.00 0.00 6.57 -1.05
465.00 288.00 0.00 6.57 -1.06
466.00 288.00 0.00 6.56 -1.08
467.00 288.00 0.00 6.56 -1.09
468.00 288.00 0.00 6.55 -1.10
469.00 288.00 0.00 6.55 -1.11
470.00 288.00 0.00 6.54 -1.12
471.00 288.00 0.00 6.54 -1.13
472.00 288.00 0.00 6.53 -1.15
473.00 288.00 0.00 6.53 -1.16
474.00 288.00 0.00 6.52 -1.17
475.00 288.00 0.00 6.52 -1.18
476.00 288.00 0.00 6.51 -1.19
477.00 288.00 0.00 6.51 -1.20
478.00 288.00 0.00 6.50 -1.21
479.00 288.00 0.00 6.50 -1.22
480.00 288.00 0.00 6.49 -1.24
481.00 288.00 0.00 6.49 -1.25
482.00 288.00 0.00 6.49 -1.26
483.00 288.00 0.00 6.48 -1.27
484.00 288.00 0.00 6.48 -1.28
485.00 288.00 0.00 6.47 -1.29
486.00 288.00 0.00 6.47 -1.30
487.00 288.00 0.00 6.46 -1.31
488.00 288.00 0.00 6.46 -1.32
489.00 288.00 0.00 6.45 -1.33
490.00 288.00 0.00 6.45 -1.34
491.00 288.00 0.00 6.45 -1.35
492.00 288.00 0.00 6.44 -1.36
493.00 288.00 0.00 6.44 -1.37
494.00 288.00 0.00 6.43 -1.38
495.00 288.00 0.00 6.43 -1.39
496.00 288.00 0.00 6.43 -1.40
497.00 288.00 0.00 6.42 -1.41
498.00 288.00 0.00 6.42 -1.42
499.00 288.00 0.00 6.41 -1.43
500.00 288.00 0.00 6.41 -1.44
501.00 288.00 0.00 6.40 -1.45
502.00 288.00 0.00 6.40 -1.46
503.00 288.00 0.00 6.40 -1.47
504.00 288.00 0.00 6.39 -1.48
505.00 288.00 0.00 6.39 -1.49
506.00 288.00 0.00 6.39 -1.49
507.00 288.00 0.00 6.38 -1.50
508.00 288.00 0.00 6.38 -1.51
509.00 288.00 0.00 6.37 -1.52
510.00 288.00 0.00 6.37 -1.53
511.00 288.00 0.00 6.37 -1.54
512.00 288.00 0.00 6.36 -1.55
513.00 288.00 0.00 6.36 -1.56
514.00 288.00 0.00 6.36 -1.56
515.00 288.00 0.00 6.35 -1.57
516.00 288.00 0.00 6.35 -1.58
517.00 288.00 0.00 6.35 -1.59
518.00 288.00 0.00 6.34 -1.60
519.00 288.00 0.00 6.34 -1.61
520.00 288.00 0.00 6.33 -1.61
521.00 288.00 0.00 6.33 -1.62
522.00 288.00 0.00 6.33 -1.63
523.00 288.00 0.00 6.32 -1.64
524.00 288.00 0.00 6.32 -1.65
525.00 288.00 0.00 6.32 -1.65
526.00 288.00 0.00 6.31 -1.66
527.00 288.00 0.00 6.31 -1.67
528.00 288.00 0.00 6.31 -1.68
529.00 288.00 0.00 6.31 -1.69
530.00 288.00 0.00 6.30 -1.69
531.00 288.00 0.00 6.30 -1.70
532.00 288.00 0.00 6.30 -1.71
533.00 288.00 0.00 6.29 -1.71
534.00 288.00 0.00 6.29 -1.72
535.00 288.00 0.00 6.29 -1.73
536.00 288.00 0.00 6.28 -1.74
537.00 288.00 0.00 6.28 -1.74
538.00 288.00 0.00 6.28 -1.75
539.00 288.00 0.00 6.27 -1.76
540.00 288.00 0.00 6.27 -1.76
541.00 288.00 0.00 6.27 -1.77
542.00 288.00 0.00 6.27 -1.78
543.00 288.00 0.00 6.26 -1.78
544.00 288.00 0.00 6.26 -1.79
545.00 288.00 0.00 6.26 -1.80
546.00 288.00 0.00 6.26 -1.80
547.00 288.00 0.00 6.25 -1.81
548.00 288.00 0.00 6.25 -1.82
549.00 288.00 0.00 6.25 -1.82
550.00 288.00 0.00 6.24 -1.83
551.00 288.00 0.00 6.24 -1.83
552.00 288.00 0.00 6.24 -1.84
553.00 288.00 0.00 6.24 -1.85
554.00 288.00 0.00 6.23 -1.85
555.00 288.00 0.00 6.23 -1.86
556.00 288.00 0.00 6.23 -1.86
557.00 288.00 0.00 6.23 -1.87
558.00 288.00 0.00 6.22 -1.87
559.00 288.00 0.00 6.22 -1.88
560.00 288.00 0.00 6.22 -1.88
561.00 288.00 0.00 6.22 -1.89
562.00 288.00 0.00 6.22 -1.90
563.00 288.00 0.00 6.21 -1.90
564.00 288.00 0.00 6.21 -1.91
565.00 288.00 0.00 6.21 -1.91
566.00 288.00 0.00 6.21 -1.92
567.00 288.00 0.00 6.20 -1.92
568.00 288.00 0.00 6.20 -1.93
569.00 288.00 0.00 6.20 -1.93
570.00 288.00 0.00 6.20 -1.94
571.00 288.00 0.00 6.20 -1.94
572.00 288.00 0.00 6.19 -1.94
573.00 288.00 0.00 6.19 -1.95
574.00 288.00 0.00 6.19 -1.95
575.00 288.00 0.00 6.19 -1.96
576.00 288.00 0.00 6.19 -1.96
577.00 288.00 0.00 6.19 -1.97
578.00 288.00 0.00 6.18 -1.97
579.00 288.00 0.00 6.18 -1.98
580.00 288.00 0.00 6.18 -1.98
581.00 288.00 0.00 6.18 -1.98
582.00 288.00 0.00 6.18 -1.99
583.00 288.00 0.00 6.17 -1.99
584.00 288.00 0.00 6.17 -1.99
585.00 288.00 0.00 6.17 -2.00
586.00 288.00 0.00 6.17 -2.00
587.00 288.00 0.00 6.17 -2.01
588.00 288.00 0.00 6.17 -2.01
589.00 288.00 0.00 6.17 -2.01
590.00 288.00 0.00 6.16 -2.02
591.00 288.00 0.00 6.16 -2.02
592.00 288.00 0.00 6.16 -2.02
593.00 288.00 0.00 6.16 -2.03
594.00 288.00 0.00 6.16 -2.03
595.00 288.00 0.00 6.16 -2.03
596.00 288.00 0.00 6.16 -2.04
597.00 288.00 0.00 6.15 -2.04
598.00 288.00 0.00 6.15 -2.04
599.00 288.00 0.00 6.15 -2.04
600.00 288.00 0.00 6.15 -2.05
601.00 288.00 0.00 6.15 -2.05
602.00 288.00 0.00 6.15 -2.05
603.00 288.00 0.00 6.15 -2.06
604.00 288.00 0.00 6.15 -2.06
605.00 288.00 0.00 6.14 -2.06
606.00 288.00 0.00 6.14 -2.06
607.00 288.00 0.00 6.14 -2.06
608.00 288.00 0.00 6.14 -2.07
609.00 288.00 0.00 6.14 -2.07
610.00 288.00 0.00 6.14 -2.07
611.00 288.00 0.00 6.14 -2.07
612.00 288.00 0.00 6.14 -2.08
613.00 288.00 0.00 6.14 -2.08
614.00 288.00 0.00 6.14 -2.08
615.00 288.00 0.00 6.14 -2.08
616.00 288.00 0.00 6.13 -2.08
617.00 288.00 0.00 6.13 -2.08
618.00 288.00 0.00 6.13 -2.09
619.00 288.00 0.00 6.13 -2.09
620.00 288.00 0.00 6.13 -2.09
621.00 288.00 0.00 6.13 -2.09
622.00 288.00 0.00 6.13 -2.09
623.00 288.00 0.00 6.13 -2.09
624.00 288.00 0.00 6.13 -2.09
625.00 288.00 0.00 6.13 -2.10
626.00 288.00 0.00 6.13 -2.10
627.00 288.00 0.00 6.13 -2.10
628.00 288.00 0.00 6.13 -2.10
629.00 288.00 0.00 6.13 -2.10
630.00 288.00 0.00 6.13 -2.10
631.00 288.00 0.00 6.13 -2.10
632.00 288.00 0.00 6.13 -2.10
633.00 288.00 0.00 6.13 -2.10
634.00 288.00 0.00 6.13 -2.10
635.00 288.00 0.00 6.13 -2.10
636.00 288.00 0.00 6.13 -2.10
637.00 288.00 0.00 6.13 -2.10
638.00 288.00 0.00 6.13 -2.10
639.00 288.00 0.00 6.13 -2.10
640.00 288.00 0.00 6.13 -2.10
641.00 288.00 0.00 6.13 -2.10
642.00 288.00 0.00 6.13 -2.10
643.00 288.00 0.00 6.13 -2.10
644.00 288.00 0.00 6.13 -2.10
645.00 288.00 0.00 6.13 -2.10
646.00 288.00 0.00 6.13 -2.10
647.00 288.00 0.00 6.13 -2.10
648.00 288.00 0.00 6.13 -2.10
649.00 288.00 0.00 6.13 -2.10
650.00 288.00 0.00 6.13 -2.10
651.00 288.00 0.00 6.13 -2.10
652.00 288.00 0.00 6.13 -2.10
653.00 288.00 0.00 6.13 -2.10
654.00 288.00 0.00 6.13 -2.10
655.00 288.00 0.00 6.13 -2.10
656.00 288.00 0.00 6.13 -2.10
657.00 288.00 0.00 6.13 -2.10
658.00 288.00 0.00 6.13 -2.10
659.00 288.00 0.00 6.13 -2.10
660.00 288.00 0.00 6.13 -2.10
661.00 288.00 0.00 6.13 -2.10
662.00 288.00 0.00 6.13 -2.10
663.00 288.00 0.00 6.13 -2.10
664.00 288.00 0.00 6.13 -2.10
665.00 288.00 0.00 6.13 -2.10
666.00 288.00 0.00 6.13 -2.10
667.00 288.00 0.00 6.13 -2.10
668.00 288.00 0.00 6.13 -2.10
669.00 288.00 0.00 6.13 -2.10
670.00 288.00 0.00 6.13 -2.10
671.00 288.00 0.00 6.13 -2.10
672.00 288.00 0.00 6.13 -2.10
673.00 288.00 0.00 6.13 -2.10
674.00 288.00 0.00 6.13 -2.10
675.00 288.00 0.00 6.13 -2.10
676.00 288.00 0.00 6.13 -2.10
677.00 288.00 0.00 6.13 -2.10
678.00 288.00 0.00 6.13 -2.10
679.00 288.00 0.00 6.13 -2.10
680.00 288.00 0.00 6.13 -2.10
681.00 288.00 0.00 6.13 -2.10
682.00 288.00 0.00 6.13 -2.10
683.00 288.00 0.00 6.13 -2.10
684.00 288.00 0.00 6.13 -2.10
685.00 288.00 0.00 6.13 -2.10
686.00 288.00 0.00 6.13 -2.10
687.00 288.00 0.00 6.13 -2.10
688.00 288.00 0.00 6.13 -2.10
689.00 288.00 0.00 6.13 -2.10
690.00 288.00 0.00 6.13 -2.10
691.00 288.00 0.00 6.13 -2.10
692.00 288.00 0.00 6.13 -2.10
693.00 288.00 0.00 6.13 -2.10
694.00 288.00 0.00 6.13 -2.10
695.00 288.00 0.00 6.13 -2.10
696.00 288.00 0.00 6.13 -2.10
697.00 288.00 0.00 6.13 -2.10
698.00 288.00 0.00 6.13 -2.10
699.00 288.00 0.00 6.13 -2.10
700.00 288.00 0.00 6.13 -2.10
701.00 288.00 0.00 6.13 -2.10
702.00 288.00 0.00 6.13 -2.10
703.00 288.00 0.00 6.13 -2.10
704.00 288.00 0.00 6.13 -2.10
705.00 288.00 0.00 6.13 -2.10
706.00 288.00 0.00 6.13 -2.10
707.00 288.00 0.00 6.13 -2.10
708.00 288.00 0.00 6.13 -2.10
709.00 288.00 0.00 6.13 -2.10
710.00 288.00 0.00 6.13 -2.10
711.00 288.00 0.00 6.13 -2.10
712.00 288.00 0.00 6.13 -2.10
713.00 288.00 0.00 6.13 -2.10
714.00 288.00 0.00 6.13 -2.10
715.00 288.00 0.00 6.13 -2.10
716.00 288.00 0.00 6.13 -2.10
717.00 288.00 0.00 6.13 -2.10
718.00 288.00 0.00 6.13 -2.10
719.00 288.00 0.00 6.13 -2.10
720.00 288.00 0.00 6.13 -2.10
721.00 288.00 0.00 6.13 -2.10
722.00 288.00 0.00 6.13 -2.10
723.00 288.00 0.00 6.13 -2.10
724.00 288.00 0.00 6.13 -2.10
725.00 288.00 0.00 6.13 -2.10
726.00 288.00 0.00 6.13 -2.10
727.00 288.00 0.00 6.13 -2.10
728.00 288.00 0.00 6.13 -2.10
729.00 288.00 0.00 6.13 -2.10
730.00 288.00 0.00 6.13 -2.10
731.00 288.00 0.00 6.13 -2.10
732.00 288.00 0.00 6.13 -2.10
733.00 288.00 0.00 6.13 -2.10
734.00 288.00 0.00 6.13 -2.10
735.00 288.00 0.00 6.13 -2.10
736.00 288.00 0.00 6.13 -2.10
737.00 288.00 0.00 6.13 -2.10
738.00 288.00 0.00 6.13 -2.10
739.00 288.00 0.00 6.13 -2.10
740.00 288.00 0.00 6.13 -2.10
741.00 288.00 0.00 6.13 -2.10
742.00 288.00 0.00 6.13 -2.10
743.00 288.00 0.00 6.13 -2.10
744.00 288.00 0.00 6.13 -2.10
745.00 288.00 0.00 6.13 -2.10
746.00 288.00 0.00 6.13 -2.10
747.00 288.00 0.00 6.13 -2.10
748.00 288.00 0.00 6.13 -2.10
749.00 288.00 0.00 6.13 -2.10
750.00 288.00 0.00 6.13 -2.10
751.00 288.00 0.00 6.13 -2.10
752.00 288.00 0.00 6.13 -2.10
753.00 288.00 0.00 6.13 -2.10
754.00 288.00 0.00 6.13 -2.10
755.00 288.00 0.00 6.13 -2.10
756.00 288.00 0.00 6.13 -2.10
757.00 288.00 0.00 6.13 -2.10
758.00 288.00 0.00 6.13 -2.10
759.00 288.00 0.00 6.13 -2.10
760.00 288.00 0.00 6.13 -2.10
761.00 288.00 0.00 6.13 -2.10
762.00 288.00 0.00 6.13 -2.10
763.00 288.00 0.00 6.13 -2.10
764.00 288.00 0.00 6.13 -2.10
765.00 288.00 0.00 6.13 -2.10
766.00 288.00 0.00 6.13 -2.10
767.00 288.00 0.00 6.13 -2.10
768.00 288.00 0.00 6.13 -2.10
769.00 288.00 0.00 6.13 -2.10
770.00 288.00 0.00 6.13 -2.10
771.00 288.00 0.00 6.13 -2.10
772.00 288.00 0.00 6.13 -2.10
773.00 288.00 0.00 6.13 -2.10
774.00 288.00 0.00 6.13 -2.10
775.00 288.00 0.00 6.13 -2.10
776.00 288.00 0.00 6.13 -2.10
777.00 288.00 0.00 6.13 -2.10
778.00 288.00 0.00 6.13 -2.10
779.00 288.00 0.00 6.13 -2.10
780.00 288.00 0.00 6.13 -2.10
781.00 288.00 0.00 6.13 -2.10
782.00 288.00 0.00 6.13 -2.10
783.00 288.00 0.00 6.13 -2.10
784.00 288.00 0.00 6.13 -2.10
785.00 288.00 0.00 6.13 -2.10
786.00 288.00 0.00 6.13 -2.10
787.00 288.00 0.00 6.13 -2.10
788.00 288.00 0.00 6.13 -2.10
789.00 288.00 0.00 6.13 -2.10
790.00 288.00 0.00 6.13 -2.10
791.00 288.00 0.00 6.13 -2.10
792.00 288.00 0.00 6.13 -2.10
793.00 288.00 0.00 6.13 -2.10
794.00 288.00 0.00 6.13 -2.10
795.00 288.00 0.00 6.13 -2.10
796.00 288.00 0.00 6.13 -2.10
797.00 288.00 0.00 6.13 -2.10
798.00 288.00 0.00 6.13 -2.10
799.00 288.00 0.00 6.13 -2.10
800.00 288.00 0.00 6.13 -2.10
801.00 288.00 0.00 6.13 -2.10
802.00 288.00 0.00 6.13 -2.10
803.00 288.00 0.00 6.13 -2.10
804.00 288.00 0.00 6.13 -2.10
805.00 288.00 0.00 6.13 -2.10
806.00 288.00 0.00 6.13 -2.10
807.00 288.00 0.00 6.13 -2.10
808.00 288.00 0.00 6.13 -2.10
809.00 288.00 0.00 6.13 -2.10
810.00 288.00 0.00 6.13 -2.10
811.00 288.00 0.00 6.13 -2.10
812.00 288.00 0.00 6.13 -2.10
813.00 288.00 0.00 6.13 -2.10
814.00 288.00 0.00 6.13 -2.10
815.00 288.00 0.00 6.13 -2.10
816.00 288.00 0.00 6.13 -2.10
817.00 288.00 0.00 6.13 -2.10
818.00 288.00 0.00 6.13 -2.10
819.00 288.00 0.00 6.13 -2.10
820.00 288.00 0.00 6.13 -2.10
821.00 288.00 0.00 6.13 -2.10
822.00 288.00 0.00 6.13 -2.10
823.00 288.00 0.00 6.13 -2.10
824.00 288.00 0.00 6.13 -2.10
825.00 288.00 0.00 6.13 -2.10
826.00 288.00 0.00 6.13 -2.10
827.00 288.00 0.00 6.13 -2.10
828.00 288.00 0.00 6.13 -2.10
829.00 288.00 0.00 6.13 -2.10
830.00 288.00 0.00 6.13 -2.10
831.00 288.00 0.00 6.13 -2.10
