 &time_control
 run_days                            = 00,
 run_hours                           = 00,
 run_minutes                         = 30,
 run_seconds                         = 00,
 start_year                          = 0001, 0001, 0001,
 start_month                         = 01,   01,   01,
 start_day                           = 01,   01,   01,
 start_hour                          = 00,   00,   00,
 start_minute                        = 00,   00,   00,
 start_second                        = 00,   00,   00,
 end_year                            = 0001, 0001, 0001,
 end_month                           = 01,   01,   01,
 end_day                             = 01,   01,   01,
 end_hour                            = 01,   01,   01,
 end_minute                          = 00,   00,   00,
 end_second                          = 00,   00,   00,
 history_interval_m                  = 00,   00,   00,
 history_interval_s                  = 10,   10,   00,
 frames_per_outfile                  = 90,   90,   90,
 restart                             = .false.,
 restart_interval_s                  = 0,
 io_form_history                     = 2,
 io_form_restart                     = 2,
 io_form_input                       = 2,
 io_form_boundary                    = 2,  
 nocolons                            = .true.,
 /

 &domains
 time_step                           = 0,
 time_step_fract_num                 = 10,
 time_step_fract_den                 = 55,
 max_dom                             = 2,
 s_we                                = 1,     1,     1,
 e_we                                = 251,   651,   751,
 s_sn                                = 1,     1,     1,
 e_sn                                = 101,   191,   191,
 s_vert                              = 1,     1,     1,
 e_vert                              = 187,   187,   187,
 eta_levels                          = 1.00000, 0.99443, 0.98886, 0.98329, 0.97773,
                                       0.97217, 0.96661, 0.96105, 0.95549, 0.94994,
                                       0.94439, 0.93884, 0.93329, 0.92775, 0.92220,
                                       0.91666, 0.91112, 0.90559, 0.90005, 0.89452,
                                       0.88899, 0.88346, 0.87794, 0.87241, 0.86689,
                                       0.86137, 0.85585, 0.85034, 0.84482, 0.83931,
                                       0.83380, 0.82830, 0.82279, 0.81729, 0.81179,
                                       0.80629, 0.80079, 0.79530, 0.78981, 0.78432,
                                       0.77883, 0.77334, 0.76786, 0.76238, 0.75690,
                                       0.75142, 0.74595, 0.74047, 0.73500, 0.72954,
                                       0.72407, 0.71860, 0.71314, 0.70768, 0.70222,
                                       0.69677, 0.69131, 0.68586, 0.68041, 0.67496,
                                       0.66952, 0.66407, 0.65863, 0.65319, 0.64776,
                                       0.64232, 0.63689, 0.63146, 0.62603, 0.62060,
                                       0.61518, 0.60975, 0.60433, 0.59892, 0.59350,
                                       0.58808, 0.58267, 0.57726, 0.57186, 0.56645,
                                       0.56105, 0.55564, 0.55024, 0.54485, 0.53945,
                                       0.53406, 0.52867, 0.52328, 0.51789, 0.51251,
                                       0.50712, 0.50174, 0.49636, 0.49099, 0.48561,
                                       0.48024, 0.47487, 0.46950, 0.46414, 0.45877,
                                       0.45341, 0.44805, 0.44269, 0.43734, 0.43198,
                                       0.42663, 0.42128, 0.41594, 0.41059, 0.40525,
                                       0.39991, 0.39457, 0.38923, 0.38389, 0.37856,
                                       0.37323, 0.36790, 0.36258, 0.35725, 0.35193,
                                       0.34661, 0.34129, 0.33597, 0.33066, 0.32535,
                                       0.32004, 0.31473, 0.30942, 0.30412, 0.29882,
                                       0.29352, 0.28822, 0.28292, 0.27763, 0.27234,
                                       0.26705, 0.26176, 0.25648, 0.25119, 0.24591,
                                       0.24063, 0.23535, 0.23008, 0.22481, 0.21954,
                                       0.21427, 0.20900, 0.20373, 0.19847, 0.19321,
                                       0.18795, 0.18270, 0.17744, 0.17219, 0.16694,
                                       0.16169, 0.15644, 0.15120, 0.14596, 0.14072,
                                       0.13548, 0.13024, 0.12501, 0.11978, 0.11455,
                                       0.10932, 0.10409, 0.09887, 0.09365, 0.08843,
                                       0.08321, 0.07799, 0.07278, 0.06757, 0.06236,
                                       0.05715, 0.05194, 0.04674, 0.04154, 0.03634,
                                       0.03114, 0.02595, 0.02075, 0.01556, 0.01037,
                                       0.00519, 0.00000,
 dx                                  = 40,
 dy                                  = 40,
 ztop                                = 756,  756,  756,
 grid_id                             = 1,     2,     2,
 parent_id                           = 0,     1,     1,
 i_parent_start                      = 0,     18,    15,
 j_parent_start                      = 0,     40,    40,
 parent_grid_ratio                   = 1,     10,    10,
 parent_time_step_ratio              = 1,     10,    10,
 feedback                            = 0,
 smooth_option                       = 0,
 /

 &physics
 mp_physics                          = 0,     0,     0,
 ra_lw_physics                       = 0,     0,     0,
 ra_sw_physics                       = 0,     0,     0,
 radt                                = 0,     0,     0,
 sf_sfclay_physics                   = 0,     0,     0,
 sf_surface_physics                  = 0,     0,     0,
 bl_pbl_physics                      = 0,     0,     0,
 bldt                                = 0,     0,     0,
 cu_physics                          = 0,     0,     0,
 cudt                                = 0,     0,     0,
 isfflx                              = 2,
! ====================================
! options for WRF-LES-GAL/GAD/GADrs:
 wind_wtp_opt                        = 0,     2,
 wind_wtp_spec_rho                   = 1.225,
 wind_wtp_spec_turbdir               = 270.0,
 wind_wtp_bladesmear_opt             = 0,
 wind_wtp_nacellesmear_opt           = 0,
 wind_wtp_towersmear_opt             = 0, 
 wind_wtp_aerodynloss_opt            = 0,
 wind_wtp_correction3D_opt           = 0,
 wind_wtp_printdiag_opt              = 2,
 wind_wtp_yaw_opt                    = .false.,
 wind_wtp_hubpar_opt                 = .false.,
 wind_wtp_towpar_opt                 = .false.,
 wind_wtp_errorcheck_opt             = .true.,
 wind_wtp_speedcontrol_opt           = .false.,
 wind_wtp_pitchcontrol_opt           = .false.,
 wind_wtp_nTurbines                  = 1,
 wind_wtp_nSections                  = 45,
 wind_wtp_nElements                  = 45,
 wind_wtp_nSeries                    = 2025,
 wind_wtp_nTowpoints                 = 5,
 wind_wtp_nSeries_tow                = 5,
 wind_wtp_nNacpoints                 = 5,
 wind_wtp_nSeries_nac                = 5,
 wind_wtp_nAvesamples                = 100,
 wind_wtp_nSeries_tme                = 100,
 windturbines_latlon                 = 0,
! ====================================
! options for WRF-LES-GADrs:
! wind_wtp_sect_width_rad             = 0.5,
! wind_wtp_sect_length_tan            = 1.0,
! wind_wtp_nSeries_disk               = 32,
! ====================================
! options for WRF-LES-SAD:
! wind_wtp_opt                        = 0,     4,
! wind_wtp_spec_rho                   = 1.225,
! wind_wtp_printdiag_opt              = 0,
! wind_wtp_yaw_opt                    = .true.,
! wind_wtp_nTurbines                  = 572,
! wind_wtp_tke_fact                   = 0.25,
! wind_wtp_dist_cst                   = 1.0,
! wind_wtp_yaw_rate                   = 0.5,
! wind_wtp_yaw_threshold              = 1000.0,
! wind_wtp_aif_opt                    = 1,
! wind_wtp_nAvesamples                = 50,
! wind_wtp_nSeries_tme                = 28600,
! windfarm_ij                         = 0,
 /

 &fdda
 /

 &dynamics
 cpm_opt                             = 0,      0,
 cpm_meso_pblh                       = 0,      0,
 cpm_meso_hfx                        = 0,      0,
 cpm_pblh_check                      = 0.0,    300.0,
 cpm_lim_z                           = 0.0,    1000.0,
 cpm_ngc_h                           = 0,      8,
 cpm_ncells_h                        = 0,      3,
 cpm_ngc_v                           = 0,      1,
 cpm_nb                              = 0,      0,
 cpm_sb                              = 0,      0,
 cpm_eb                              = 0,      0,
 cpm_wb                              = 0,      0,
 cpm_noff_h                          = 0,      0,
 cpm_noff_v                          = 0,      0,
 cpm_amp                             = 0.0,    0.0,
 cpm_pec                             = 0.0,    0.2,
 cpm_dt                              = 0.0,    0.0,
 cpm_lambda                          = 0.0,    1.0,
 cpm_rim                             = 0.0,   -1.0,
 hybrid_opt                          = 0,
 rk_ord                              = 3,
 diff_opt                            = 2,      2,      2,
 km_opt                              = 3,      3,      3,
 sfs_opt                             = 0,      0,      0,
 m_opt                               = 0,      0,      0,
 damp_opt                            = 0,
 w_damping                           = 0,
 zdamp                               = 100.,   100.,   100.,
 dampcoef                            = 0.003,  0.003,  0.003,
 khdif                               = 1.,      1.,      1.,
 kvdif                               = 1.,      1.,      1.,
 c_s                                 = 0.18
 c_k                                 = 0.10
 mix_isotropic                       = 1
 smdiv                               = 0.1,    0.1,    0.1,
 emdiv                               = 0.01,   0.01,   0.01,
 epssm                               = 0.1,    0.1,    0.1,
 tke_heat_flux                       = 0.00,   0.00,   0.00,
 time_step_sound                     = 6,      6,      6,
 h_mom_adv_order                     = 5,      5,      5,
 v_mom_adv_order                     = 3,      3,      3,
 h_sca_adv_order                     = 5,      5,      5,
 v_sca_adv_order                     = 3,      3,      3,
 mix_full_fields                     = .true., .true., .true.,
 non_hydrostatic                     = .true., .true., .true.,
 pert_coriolis                       = .false., .false., .false.,
 use_theta_m                         = 0,
 use_baseparam_fr_nml                = .true.,
 spec_ideal                          = 0,
 spec_hfx                            = 0.0,
 spec_z0                             = 0.1,
 spec_sf_heatrate                    = 0.0,
 spec_lat                            = 57.0489,
! ====================================
! options for WRF-LES-GAL/GAD/GADrs:
 wind_wtp_tsout_opt                  = .false.,
 wind_wtp_ts_buf_size                = 1,
! ====================================
! options for WRF-LES-SAD:
! wind_wtp_sad_tsout_opt              = .false.,
! wind_wtp_ts_buf_size                = 1,
! ====================================
! options for WRF-LES-GAL/GAD/GADrs/SAD plane:
 wind_wtp_pln_tsout_opt              = .false.,
 wind_wtp_pln_ts_buf_size            = 100,
 wind_wtp_pln_nTurbines              = 5,
 wind_wtp_pln_turbine_ids            = 1, 6, 7, 9, 11,
 wind_wtp_pln_nz                     = 23,
 wind_wtp_pln_nxy                    = 21,
 wind_wtp_pln_nSeries_tme            = 2415,
 wind_wtp_pln_width                  = 210.0,
 wind_wtp_pln_height                 = 230.0,
 wind_wtp_pln_dist                   = 200.0,
! ====================================
 /

 &bdy_control
 periodic_x                          = .true., 
 symmetric_xs                        = .false.,
 symmetric_xe                        = .false.,
 open_xs                             = .false.,
 open_xe                             = .false.,
 periodic_y                          = .true., 
 symmetric_ys                        = .false.,
 symmetric_ye                        = .false.,
 open_ys                             = .false.,
 open_ye                             = .false.,
 /

 &grib2
 /

 &namelist_quilt
 nio_tasks_per_group = 0,
 nio_groups = 1,
 /

 &ideal
 ideal_case = 9
 /
