1000.00 288.00 00.00
0.00 288.00 0.00 5.76 1.06
1.00 288.00 0.00 5.76 1.06
2.00 288.00 0.00 5.76 1.06
3.00 288.00 0.00 5.76 1.06
4.00 288.00 0.00 5.76 1.06
5.00 288.00 0.00 5.76 1.06
6.00 288.00 0.00 5.76 1.06
7.00 288.00 0.00 5.76 1.06
8.00 288.00 0.00 5.76 1.06
9.00 288.00 0.00 5.76 1.06
10.00 288.00 0.00 5.76 1.06
11.00 288.00 0.00 5.76 1.06
12.00 288.00 0.00 5.76 1.06
13.00 288.00 0.00 5.76 1.06
14.00 288.00 0.00 5.76 1.06
15.00 288.00 0.00 5.76 1.06
16.00 288.00 0.00 5.76 1.06
17.00 288.00 0.00 5.76 1.06
18.00 288.00 0.00 5.76 1.06
19.00 288.00 0.00 5.76 1.06
20.00 288.00 0.00 5.76 1.06
21.00 288.00 0.00 5.76 1.06
22.00 288.00 0.00 5.76 1.06
23.00 288.00 0.00 5.76 1.06
24.00 288.00 0.00 5.76 1.06
25.00 288.00 0.00 5.76 1.06
26.00 288.00 0.00 5.76 1.06
27.00 288.00 0.00 5.76 1.06
28.00 288.00 0.00 5.76 1.06
29.00 288.00 0.00 5.76 1.06
30.00 288.00 0.00 5.76 1.06
31.00 288.00 0.00 5.76 1.06
32.00 288.00 0.00 5.76 1.06
33.00 288.00 0.00 5.76 1.06
34.00 288.00 0.00 5.76 1.06
35.00 288.00 0.00 5.76 1.06
36.00 288.00 0.00 5.76 1.06
37.00 288.00 0.00 5.76 1.06
38.00 288.00 0.00 5.76 1.06
39.00 288.00 0.00 5.76 1.06
40.00 288.00 0.00 5.76 1.06
41.00 288.00 0.00 5.76 1.06
42.00 288.00 0.00 5.76 1.06
43.00 288.00 0.00 5.76 1.06
44.00 288.00 0.00 5.76 1.06
45.00 288.00 0.00 5.76 1.06
46.00 288.00 0.00 5.76 1.06
47.00 288.00 0.00 5.76 1.06
48.00 288.00 0.00 5.76 1.06
49.00 288.00 0.00 5.76 1.06
50.00 288.00 0.00 5.76 1.06
51.00 288.00 0.00 5.76 1.06
52.00 288.00 0.00 5.76 1.06
53.00 288.00 0.00 5.76 1.06
54.00 288.00 0.00 5.76 1.06
55.00 288.00 0.00 5.76 1.06
56.00 288.00 0.00 5.76 1.06
57.00 288.00 0.00 5.76 1.05
58.00 288.00 0.00 5.76 1.05
59.00 288.00 0.00 5.76 1.05
60.00 288.00 0.00 5.76 1.05
61.00 288.00 0.00 5.76 1.05
62.00 288.00 0.00 5.76 1.05
63.00 288.00 0.00 5.76 1.05
64.00 288.00 0.00 5.77 1.05
65.00 288.00 0.00 5.77 1.05
66.00 288.00 0.00 5.77 1.05
67.00 288.00 0.00 5.77 1.05
68.00 288.00 0.00 5.77 1.05
69.00 288.00 0.00 5.77 1.05
70.00 288.00 0.00 5.77 1.05
71.00 288.00 0.00 5.77 1.05
72.00 288.00 0.00 5.77 1.05
73.00 288.00 0.00 5.77 1.05
74.00 288.00 0.00 5.77 1.04
75.00 288.00 0.00 5.77 1.04
76.00 288.00 0.00 5.78 1.04
77.00 288.00 0.00 5.78 1.04
78.00 288.00 0.00 5.78 1.04
79.00 288.00 0.00 5.78 1.04
80.00 288.00 0.00 5.78 1.04
81.00 288.00 0.00 5.78 1.04
82.00 288.00 0.00 5.78 1.04
83.00 288.00 0.00 5.78 1.04
84.00 288.00 0.00 5.78 1.04
85.00 288.00 0.00 5.79 1.03
86.00 288.00 0.00 5.79 1.03
87.00 288.00 0.00 5.79 1.03
88.00 288.00 0.00 5.79 1.03
89.00 288.00 0.00 5.79 1.03
90.00 288.00 0.00 5.79 1.03
91.00 288.00 0.00 5.79 1.03
92.00 288.00 0.00 5.79 1.03
93.00 288.00 0.00 5.80 1.02
94.00 288.00 0.00 5.80 1.02
95.00 288.00 0.00 5.80 1.02
96.00 288.00 0.00 5.80 1.02
97.00 288.00 0.00 5.80 1.02
98.00 288.00 0.00 5.80 1.02
99.00 288.00 0.00 5.81 1.02
100.00 288.00 0.00 5.81 1.02
101.00 288.00 0.00 5.81 1.01
102.00 288.00 0.00 5.81 1.01
103.00 288.00 0.00 5.81 1.01
104.00 288.00 0.00 5.81 1.01
105.00 288.00 0.00 5.82 1.01
106.00 288.00 0.00 5.82 1.01
107.00 288.00 0.00 5.82 1.01
108.00 288.00 0.00 5.82 1.00
109.00 288.00 0.00 5.82 1.00
110.00 288.00 0.00 5.83 1.00
111.00 288.00 0.00 5.83 1.00
112.00 288.00 0.00 5.83 1.00
113.00 288.00 0.00 5.83 1.00
114.00 288.00 0.00 5.83 0.99
115.00 288.00 0.00 5.84 0.99
116.00 288.00 0.00 5.84 0.99
117.00 288.00 0.00 5.84 0.99
118.00 288.00 0.00 5.84 0.99
119.00 288.00 0.00 5.84 0.98
120.00 288.00 0.00 5.85 0.98
121.00 288.00 0.00 5.85 0.98
122.00 288.00 0.00 5.85 0.98
123.00 288.00 0.00 5.85 0.98
124.00 288.00 0.00 5.86 0.97
125.00 288.00 0.00 5.86 0.97
126.00 288.00 0.00 5.86 0.97
127.00 288.00 0.00 5.86 0.97
128.00 288.00 0.00 5.86 0.97
129.00 288.00 0.00 5.87 0.96
130.00 288.00 0.00 5.87 0.96
131.00 288.00 0.00 5.87 0.96
132.00 288.00 0.00 5.87 0.96
133.00 288.00 0.00 5.88 0.96
134.00 288.00 0.00 5.88 0.95
135.00 288.00 0.00 5.88 0.95
136.00 288.00 0.00 5.89 0.95
137.00 288.00 0.00 5.89 0.95
138.00 288.00 0.00 5.89 0.94
139.00 288.00 0.00 5.89 0.94
140.00 288.00 0.00 5.90 0.94
141.00 288.00 0.00 5.90 0.94
142.00 288.00 0.00 5.90 0.94
143.00 288.00 0.00 5.90 0.93
144.00 288.00 0.00 5.91 0.93
145.00 288.00 0.00 5.91 0.93
146.00 288.00 0.00 5.91 0.93
147.00 288.00 0.00 5.92 0.92
148.00 288.00 0.00 5.92 0.92
149.00 288.00 0.00 5.92 0.92
150.00 288.00 0.00 5.93 0.92
151.00 288.00 0.00 5.93 0.91
152.00 288.00 0.00 5.93 0.91
153.00 288.00 0.00 5.93 0.91
154.00 288.00 0.00 5.94 0.90
155.00 288.00 0.00 5.94 0.90
156.00 288.00 0.00 5.94 0.90
157.00 288.00 0.00 5.95 0.90
158.00 288.00 0.00 5.95 0.89
159.00 288.00 0.00 5.95 0.89
160.00 288.00 0.00 5.96 0.89
161.00 288.00 0.00 5.96 0.88
162.00 288.00 0.00 5.96 0.88
163.00 288.00 0.00 5.97 0.88
164.00 288.00 0.00 5.97 0.88
165.00 288.00 0.00 5.97 0.87
166.00 288.00 0.00 5.98 0.87
167.00 288.00 0.00 5.98 0.87
168.00 288.00 0.00 5.98 0.86
169.00 288.00 0.00 5.99 0.86
170.00 288.00 0.00 5.99 0.86
171.00 288.00 0.00 6.00 0.86
172.00 288.00 0.00 6.00 0.85
173.00 288.00 0.00 6.00 0.85
174.00 288.00 0.00 6.01 0.85
175.00 288.00 0.00 6.01 0.84
176.00 288.00 0.00 6.01 0.84
177.00 288.00 0.00 6.02 0.84
178.00 288.00 0.00 6.02 0.83
179.00 288.00 0.00 6.03 0.83
180.00 288.00 0.00 6.03 0.83
181.00 288.00 0.00 6.03 0.82
182.00 288.00 0.00 6.04 0.82
183.00 288.00 0.00 6.04 0.82
184.00 288.00 0.00 6.05 0.81
185.00 288.00 0.00 6.05 0.81
186.00 288.00 0.00 6.05 0.81
187.00 288.00 0.00 6.06 0.80
188.00 288.00 0.00 6.06 0.80
189.00 288.00 0.00 6.07 0.80
190.00 288.00 0.00 6.07 0.79
191.00 288.00 0.00 6.07 0.79
192.00 288.00 0.00 6.08 0.78
193.00 288.00 0.00 6.08 0.78
194.00 288.00 0.00 6.09 0.78
195.00 288.00 0.00 6.09 0.77
196.00 288.00 0.00 6.10 0.77
197.00 288.00 0.00 6.10 0.77
198.00 288.00 0.00 6.10 0.76
199.00 288.00 0.00 6.11 0.76
200.00 288.00 0.00 6.11 0.76
201.00 288.00 0.00 6.12 0.75
202.00 288.00 0.00 6.12 0.75
203.00 288.00 0.00 6.13 0.74
204.00 288.00 0.00 6.13 0.74
205.00 288.00 0.00 6.14 0.74
206.00 288.00 0.00 6.14 0.73
207.00 288.00 0.00 6.14 0.73
208.00 288.00 0.00 6.15 0.72
209.00 288.00 0.00 6.15 0.72
210.00 288.00 0.00 6.16 0.72
211.00 288.00 0.00 6.16 0.71
212.00 288.00 0.00 6.17 0.71
213.00 288.00 0.00 6.17 0.70
214.00 288.00 0.00 6.18 0.70
215.00 288.00 0.00 6.18 0.70
216.00 288.00 0.00 6.19 0.69
217.00 288.00 0.00 6.19 0.69
218.00 288.00 0.00 6.20 0.68
219.00 288.00 0.00 6.20 0.68
220.00 288.00 0.00 6.21 0.67
221.00 288.00 0.00 6.21 0.67
222.00 288.00 0.00 6.22 0.67
223.00 288.00 0.00 6.22 0.66
224.00 288.00 0.00 6.23 0.66
225.00 288.00 0.00 6.23 0.65
226.00 288.00 0.00 6.24 0.65
227.00 288.00 0.00 6.24 0.64
228.00 288.00 0.00 6.25 0.64
229.00 288.00 0.00 6.25 0.64
230.00 288.00 0.00 6.26 0.63
231.00 288.00 0.00 6.26 0.63
232.00 288.00 0.00 6.27 0.62
233.00 288.00 0.00 6.27 0.62
234.00 288.00 0.00 6.28 0.61
235.00 288.00 0.00 6.28 0.61
236.00 288.00 0.00 6.29 0.61
237.00 288.00 0.00 6.29 0.60
238.00 288.00 0.00 6.30 0.60
239.00 288.00 0.00 6.30 0.59
240.00 288.00 0.00 6.31 0.59
241.00 288.00 0.00 6.31 0.59
242.00 288.00 0.00 6.32 0.58
243.00 288.00 0.00 6.32 0.58
244.00 288.00 0.00 6.33 0.57
245.00 288.00 0.00 6.33 0.57
246.00 288.00 0.00 6.34 0.56
247.00 288.00 0.00 6.34 0.56
248.00 288.00 0.00 6.35 0.56
249.00 288.00 0.00 6.35 0.55
250.00 288.00 0.00 6.36 0.55
251.00 288.00 0.00 6.36 0.54
252.00 288.00 0.00 6.37 0.54
253.00 288.00 0.00 6.37 0.53
254.00 288.00 0.00 6.38 0.53
255.00 288.00 0.00 6.38 0.53
256.00 288.00 0.00 6.39 0.52
257.00 288.00 0.00 6.39 0.52
258.00 288.00 0.00 6.40 0.51
259.00 288.00 0.00 6.40 0.51
260.00 288.00 0.00 6.41 0.50
261.00 288.00 0.00 6.41 0.50
262.00 288.00 0.00 6.42 0.50
263.00 288.00 0.00 6.42 0.49
264.00 288.00 0.00 6.43 0.49
265.00 288.00 0.00 6.43 0.48
266.00 288.00 0.00 6.44 0.48
267.00 288.00 0.00 6.44 0.47
268.00 288.00 0.00 6.45 0.47
269.00 288.00 0.00 6.45 0.47
270.00 288.00 0.00 6.46 0.46
271.00 288.00 0.00 6.46 0.46
272.00 288.00 0.00 6.47 0.45
273.00 288.00 0.00 6.47 0.45
274.00 288.00 0.00 6.48 0.44
275.00 288.00 0.00 6.48 0.44
276.00 288.00 0.00 6.49 0.44
277.00 288.00 0.00 6.49 0.43
278.00 288.00 0.00 6.50 0.43
279.00 288.00 0.00 6.50 0.42
280.00 288.00 0.00 6.51 0.42
281.00 288.00 0.00 6.51 0.41
282.00 288.00 0.00 6.52 0.41
283.00 288.00 0.00 6.52 0.41
284.00 288.00 0.00 6.53 0.40
285.00 288.00 0.00 6.53 0.40
286.00 288.00 0.00 6.54 0.39
287.00 288.00 0.00 6.54 0.39
288.00 288.00 0.00 6.55 0.38
289.00 288.00 0.00 6.55 0.38
290.00 288.00 0.00 6.56 0.38
291.00 288.00 0.00 6.56 0.37
292.00 288.00 0.00 6.57 0.37
293.00 288.00 0.00 6.57 0.36
294.00 288.00 0.00 6.58 0.36
295.00 288.00 0.00 6.58 0.35
296.00 288.00 0.00 6.59 0.35
297.00 288.00 0.00 6.59 0.35
298.00 288.00 0.00 6.60 0.34
299.00 288.00 0.00 6.60 0.34
300.00 288.00 0.00 6.61 0.33
301.00 288.00 0.00 6.61 0.33
302.00 288.00 0.00 6.62 0.32
303.00 288.00 0.00 6.62 0.32
304.00 288.00 0.00 6.63 0.32
305.00 288.00 0.00 6.63 0.31
306.00 288.00 0.00 6.64 0.31
307.00 288.00 0.00 6.64 0.30
308.00 288.00 0.00 6.65 0.30
309.00 288.00 0.00 6.65 0.29
310.00 288.00 0.00 6.66 0.29
311.00 288.00 0.00 6.66 0.29
312.00 288.00 0.00 6.67 0.28
313.00 288.00 0.00 6.67 0.28
314.00 288.00 0.00 6.68 0.27
315.00 288.00 0.00 6.68 0.27
316.00 288.00 0.00 6.69 0.27
317.00 288.00 0.00 6.69 0.26
318.00 288.00 0.00 6.70 0.26
319.00 288.00 0.00 6.70 0.25
320.00 288.00 0.00 6.71 0.25
321.00 288.00 0.00 6.71 0.24
322.00 288.00 0.00 6.72 0.24
323.00 288.00 0.00 6.72 0.24
324.00 288.00 0.00 6.73 0.23
325.00 288.00 0.00 6.73 0.23
326.00 288.00 0.00 6.74 0.22
327.00 288.00 0.00 6.74 0.22
328.00 288.00 0.00 6.75 0.21
329.00 288.00 0.00 6.75 0.21
330.00 288.00 0.00 6.76 0.21
331.00 288.00 0.00 6.76 0.20
332.00 288.00 0.00 6.77 0.20
333.00 288.00 0.00 6.77 0.19
334.00 288.00 0.00 6.78 0.19
335.00 288.00 0.00 6.78 0.18
336.00 288.00 0.00 6.79 0.18
337.00 288.00 0.00 6.79 0.18
338.00 288.00 0.00 6.80 0.17
339.00 288.00 0.00 6.80 0.17
340.00 288.00 0.00 6.81 0.16
341.00 288.00 0.00 6.81 0.16
342.00 288.00 0.00 6.82 0.15
343.00 288.00 0.00 6.82 0.15
344.00 288.00 0.00 6.83 0.15
345.00 288.00 0.00 6.83 0.14
346.00 288.00 0.00 6.84 0.14
347.00 288.00 0.00 6.84 0.13
348.00 288.00 0.00 6.85 0.13
349.00 288.00 0.00 6.85 0.12
350.00 288.00 0.00 6.86 0.12
351.00 288.00 0.00 6.86 0.12
352.00 288.00 0.00 6.87 0.11
353.00 288.00 0.00 6.87 0.11
354.00 288.00 0.00 6.88 0.10
355.00 288.00 0.00 6.88 0.10
356.00 288.00 0.00 6.89 0.09
357.00 288.00 0.00 6.89 0.09
358.00 288.00 0.00 6.90 0.09
359.00 288.00 0.00 6.90 0.08
360.00 288.00 0.00 6.91 0.08
361.00 288.00 0.00 6.91 0.07
362.00 288.00 0.00 6.92 0.07
363.00 288.00 0.00 6.92 0.06
364.00 288.00 0.00 6.93 0.06
365.00 288.00 0.00 6.93 0.06
366.00 288.00 0.00 6.94 0.05
367.00 288.00 0.00 6.94 0.05
368.00 288.00 0.00 6.95 0.04
369.00 288.00 0.00 6.95 0.04
370.00 288.00 0.00 6.96 0.03
371.00 288.00 0.00 6.96 0.03
372.00 288.00 0.00 6.97 0.03
373.00 288.00 0.00 6.97 0.02
374.00 288.00 0.00 6.98 0.02
375.00 288.00 0.00 6.98 0.01
376.00 288.00 0.00 6.99 0.01
377.00 288.00 0.00 6.99 0.00
378.00 288.00 0.00 7.00 0.00
379.00 288.00 0.00 7.00 -0.00
380.00 288.00 0.00 7.01 -0.01
381.00 288.00 0.00 7.01 -0.01
382.00 288.00 0.00 7.02 -0.02
383.00 288.00 0.00 7.02 -0.02
384.00 288.00 0.00 7.03 -0.03
385.00 288.00 0.00 7.03 -0.03
386.00 288.00 0.00 7.04 -0.03
387.00 288.00 0.00 7.04 -0.04
388.00 288.00 0.00 7.05 -0.04
389.00 288.00 0.00 7.05 -0.05
390.00 288.00 0.00 7.06 -0.05
391.00 288.00 0.00 7.06 -0.06
392.00 288.00 0.00 7.07 -0.06
393.00 288.00 0.00 7.07 -0.06
394.00 288.00 0.00 7.08 -0.07
395.00 288.00 0.00 7.08 -0.07
396.00 288.00 0.00 7.09 -0.08
397.00 288.00 0.00 7.09 -0.08
398.00 288.00 0.00 7.10 -0.09
399.00 288.00 0.00 7.10 -0.09
400.00 288.00 0.00 7.11 -0.09
401.00 288.00 0.00 7.11 -0.10
402.00 288.00 0.00 7.12 -0.10
403.00 288.00 0.00 7.12 -0.11
404.00 288.00 0.00 7.13 -0.11
405.00 288.00 0.00 7.13 -0.12
406.00 288.00 0.00 7.14 -0.12
407.00 288.00 0.00 7.14 -0.12
408.00 288.00 0.00 7.15 -0.13
409.00 288.00 0.00 7.15 -0.13
410.00 288.00 0.00 7.16 -0.14
411.00 288.00 0.00 7.16 -0.14
412.00 288.00 0.00 7.17 -0.15
413.00 288.00 0.00 7.17 -0.15
414.00 288.00 0.00 7.18 -0.15
415.00 288.00 0.00 7.18 -0.16
416.00 288.00 0.00 7.19 -0.16
417.00 288.00 0.00 7.19 -0.17
418.00 288.00 0.00 7.20 -0.17
419.00 288.00 0.00 7.20 -0.18
420.00 288.00 0.00 7.21 -0.18
421.00 288.00 0.00 7.21 -0.18
422.00 288.00 0.00 7.22 -0.19
423.00 288.00 0.00 7.22 -0.19
424.00 288.00 0.00 7.23 -0.20
425.00 288.00 0.00 7.23 -0.20
426.00 288.00 0.00 7.24 -0.21
427.00 288.00 0.00 7.24 -0.21
428.00 288.00 0.00 7.25 -0.21
429.00 288.00 0.00 7.25 -0.22
430.00 288.00 0.00 7.26 -0.22
431.00 288.00 0.00 7.26 -0.23
432.00 288.00 0.00 7.27 -0.23
433.00 288.00 0.00 7.27 -0.24
434.00 288.00 0.00 7.28 -0.24
435.00 288.00 0.00 7.28 -0.24
436.00 288.00 0.00 7.29 -0.25
437.00 288.00 0.00 7.29 -0.25
438.00 288.00 0.00 7.30 -0.26
439.00 288.00 0.00 7.30 -0.26
440.00 288.00 0.00 7.31 -0.27
441.00 288.00 0.00 7.31 -0.27
442.00 288.00 0.00 7.32 -0.27
443.00 288.00 0.00 7.32 -0.28
444.00 288.00 0.00 7.33 -0.28
445.00 288.00 0.00 7.33 -0.29
446.00 288.00 0.00 7.34 -0.29
447.00 288.00 0.00 7.34 -0.29
448.00 288.00 0.00 7.35 -0.30
449.00 288.00 0.00 7.35 -0.30
450.00 288.00 0.00 7.36 -0.31
451.00 288.00 0.00 7.36 -0.31
452.00 288.00 0.00 7.37 -0.32
453.00 288.00 0.00 7.37 -0.32
454.00 288.00 0.00 7.38 -0.32
455.00 288.00 0.00 7.38 -0.33
456.00 288.00 0.00 7.39 -0.33
457.00 288.00 0.00 7.39 -0.34
458.00 288.00 0.00 7.40 -0.34
459.00 288.00 0.00 7.40 -0.35
460.00 288.00 0.00 7.41 -0.35
461.00 288.00 0.00 7.41 -0.35
462.00 288.00 0.00 7.42 -0.36
463.00 288.00 0.00 7.42 -0.36
464.00 288.00 0.00 7.43 -0.37
465.00 288.00 0.00 7.43 -0.37
466.00 288.00 0.00 7.44 -0.38
467.00 288.00 0.00 7.44 -0.38
468.00 288.00 0.00 7.45 -0.38
469.00 288.00 0.00 7.45 -0.39
470.00 288.00 0.00 7.46 -0.39
471.00 288.00 0.00 7.46 -0.40
472.00 288.00 0.00 7.47 -0.40
473.00 288.00 0.00 7.47 -0.41
474.00 288.00 0.00 7.48 -0.41
475.00 288.00 0.00 7.48 -0.41
476.00 288.00 0.00 7.49 -0.42
477.00 288.00 0.00 7.49 -0.42
478.00 288.00 0.00 7.50 -0.43
479.00 288.00 0.00 7.50 -0.43
480.00 288.00 0.00 7.51 -0.44
481.00 288.00 0.00 7.51 -0.44
482.00 288.00 0.00 7.52 -0.44
483.00 288.00 0.00 7.52 -0.45
484.00 288.00 0.00 7.53 -0.45
485.00 288.00 0.00 7.53 -0.46
486.00 288.00 0.00 7.54 -0.46
487.00 288.00 0.00 7.54 -0.47
488.00 288.00 0.00 7.55 -0.47
489.00 288.00 0.00 7.55 -0.47
490.00 288.00 0.00 7.56 -0.48
491.00 288.00 0.00 7.56 -0.48
492.00 288.00 0.00 7.57 -0.49
493.00 288.00 0.00 7.57 -0.49
494.00 288.00 0.00 7.58 -0.50
495.00 288.00 0.00 7.58 -0.50
496.00 288.00 0.00 7.59 -0.50
497.00 288.00 0.00 7.59 -0.51
498.00 288.00 0.00 7.60 -0.51
499.00 288.00 0.00 7.60 -0.52
500.00 288.00 0.00 7.61 -0.52
501.00 288.00 0.00 7.61 -0.53
502.00 288.00 0.00 7.62 -0.53
503.00 288.00 0.00 7.62 -0.53
504.00 288.00 0.00 7.63 -0.54
505.00 288.00 0.00 7.63 -0.54
506.00 288.00 0.00 7.64 -0.55
507.00 288.00 0.00 7.64 -0.55
508.00 288.00 0.00 7.65 -0.56
509.00 288.00 0.00 7.65 -0.56
510.00 288.00 0.00 7.66 -0.56
511.00 288.00 0.00 7.66 -0.57
512.00 288.00 0.00 7.67 -0.57
513.00 288.00 0.00 7.67 -0.58
514.00 288.00 0.00 7.68 -0.58
515.00 288.00 0.00 7.68 -0.59
516.00 288.00 0.00 7.69 -0.59
517.00 288.00 0.00 7.69 -0.59
518.00 288.00 0.00 7.70 -0.60
519.00 288.00 0.00 7.70 -0.60
520.00 288.00 0.00 7.71 -0.61
521.00 288.00 0.00 7.71 -0.61
522.00 288.00 0.00 7.72 -0.61
523.00 288.00 0.00 7.72 -0.62
524.00 288.00 0.00 7.73 -0.62
525.00 288.00 0.00 7.73 -0.63
526.00 288.00 0.00 7.74 -0.63
527.00 288.00 0.00 7.74 -0.64
528.00 288.00 0.00 7.75 -0.64
529.00 288.00 0.00 7.75 -0.64
530.00 288.00 0.00 7.76 -0.65
531.00 288.00 0.00 7.76 -0.65
532.00 288.00 0.00 7.77 -0.66
533.00 288.00 0.00 7.77 -0.66
534.00 288.00 0.00 7.78 -0.67
535.00 288.00 0.00 7.78 -0.67
536.00 288.00 0.00 7.79 -0.67
537.00 288.00 0.00 7.79 -0.68
538.00 288.00 0.00 7.80 -0.68
539.00 288.00 0.00 7.80 -0.69
540.00 288.00 0.00 7.81 -0.69
541.00 288.00 0.00 7.81 -0.70
542.00 288.00 0.00 7.82 -0.70
543.00 288.00 0.00 7.82 -0.70
544.00 288.00 0.00 7.83 -0.71
545.00 288.00 0.00 7.83 -0.71
546.00 288.00 0.00 7.84 -0.72
547.00 288.00 0.00 7.84 -0.72
548.00 288.00 0.00 7.85 -0.72
549.00 288.00 0.00 7.85 -0.73
550.00 288.00 0.00 7.86 -0.73
551.00 288.00 0.00 7.86 -0.74
552.00 288.00 0.00 7.86 -0.74
553.00 288.00 0.00 7.87 -0.74
554.00 288.00 0.00 7.87 -0.75
555.00 288.00 0.00 7.88 -0.75
556.00 288.00 0.00 7.88 -0.76
557.00 288.00 0.00 7.89 -0.76
558.00 288.00 0.00 7.89 -0.76
559.00 288.00 0.00 7.90 -0.77
560.00 288.00 0.00 7.90 -0.77
561.00 288.00 0.00 7.90 -0.77
562.00 288.00 0.00 7.91 -0.78
563.00 288.00 0.00 7.91 -0.78
564.00 288.00 0.00 7.92 -0.78
565.00 288.00 0.00 7.92 -0.79
566.00 288.00 0.00 7.93 -0.79
567.00 288.00 0.00 7.93 -0.80
568.00 288.00 0.00 7.93 -0.80
569.00 288.00 0.00 7.94 -0.80
570.00 288.00 0.00 7.94 -0.81
571.00 288.00 0.00 7.95 -0.81
572.00 288.00 0.00 7.95 -0.81
573.00 288.00 0.00 7.95 -0.82
574.00 288.00 0.00 7.96 -0.82
575.00 288.00 0.00 7.96 -0.82
576.00 288.00 0.00 7.97 -0.83
577.00 288.00 0.00 7.97 -0.83
578.00 288.00 0.00 7.97 -0.83
579.00 288.00 0.00 7.98 -0.84
580.00 288.00 0.00 7.98 -0.84
581.00 288.00 0.00 7.99 -0.84
582.00 288.00 0.00 7.99 -0.85
583.00 288.00 0.00 7.99 -0.85
584.00 288.00 0.00 8.00 -0.85
585.00 288.00 0.00 8.00 -0.86
586.00 288.00 0.00 8.00 -0.86
587.00 288.00 0.00 8.01 -0.86
588.00 288.00 0.00 8.01 -0.86
589.00 288.00 0.00 8.02 -0.87
590.00 288.00 0.00 8.02 -0.87
591.00 288.00 0.00 8.02 -0.87
592.00 288.00 0.00 8.03 -0.88
593.00 288.00 0.00 8.03 -0.88
594.00 288.00 0.00 8.03 -0.88
595.00 288.00 0.00 8.04 -0.88
596.00 288.00 0.00 8.04 -0.89
597.00 288.00 0.00 8.04 -0.89
598.00 288.00 0.00 8.05 -0.89
599.00 288.00 0.00 8.05 -0.90
600.00 288.00 0.00 8.05 -0.90
601.00 288.00 0.00 8.06 -0.90
602.00 288.00 0.00 8.06 -0.90
603.00 288.00 0.00 8.06 -0.91
604.00 288.00 0.00 8.07 -0.91
605.00 288.00 0.00 8.07 -0.91
606.00 288.00 0.00 8.07 -0.92
607.00 288.00 0.00 8.07 -0.92
608.00 288.00 0.00 8.08 -0.92
609.00 288.00 0.00 8.08 -0.92
610.00 288.00 0.00 8.08 -0.93
611.00 288.00 0.00 8.09 -0.93
612.00 288.00 0.00 8.09 -0.93
613.00 288.00 0.00 8.09 -0.93
614.00 288.00 0.00 8.10 -0.94
615.00 288.00 0.00 8.10 -0.94
616.00 288.00 0.00 8.10 -0.94
617.00 288.00 0.00 8.10 -0.94
618.00 288.00 0.00 8.11 -0.94
619.00 288.00 0.00 8.11 -0.95
620.00 288.00 0.00 8.11 -0.95
621.00 288.00 0.00 8.11 -0.95
622.00 288.00 0.00 8.12 -0.95
623.00 288.00 0.00 8.12 -0.96
624.00 288.00 0.00 8.12 -0.96
625.00 288.00 0.00 8.13 -0.96
626.00 288.00 0.00 8.13 -0.96
627.00 288.00 0.00 8.13 -0.96
628.00 288.00 0.00 8.13 -0.97
629.00 288.00 0.00 8.14 -0.97
630.00 288.00 0.00 8.14 -0.97
631.00 288.00 0.00 8.14 -0.97
632.00 288.00 0.00 8.14 -0.97
633.00 288.00 0.00 8.14 -0.98
634.00 288.00 0.00 8.15 -0.98
635.00 288.00 0.00 8.15 -0.98
636.00 288.00 0.00 8.15 -0.98
637.00 288.00 0.00 8.15 -0.98
638.00 288.00 0.00 8.16 -0.99
639.00 288.00 0.00 8.16 -0.99
640.00 288.00 0.00 8.16 -0.99
641.00 288.00 0.00 8.16 -0.99
642.00 288.00 0.00 8.16 -0.99
643.00 288.00 0.00 8.17 -1.00
644.00 288.00 0.00 8.17 -1.00
645.00 288.00 0.00 8.17 -1.00
646.00 288.00 0.00 8.17 -1.00
647.00 288.00 0.00 8.17 -1.00
648.00 288.00 0.00 8.18 -1.00
649.00 288.00 0.00 8.18 -1.01
650.00 288.00 0.00 8.18 -1.01
651.00 288.00 0.00 8.18 -1.01
652.00 288.00 0.00 8.18 -1.01
653.00 288.00 0.00 8.19 -1.01
654.00 288.00 0.00 8.19 -1.01
655.00 288.00 0.00 8.19 -1.01
656.00 288.00 0.00 8.19 -1.02
657.00 288.00 0.00 8.19 -1.02
658.00 288.00 0.00 8.19 -1.02
659.00 288.00 0.00 8.20 -1.02
660.00 288.00 0.00 8.20 -1.02
661.00 288.00 0.00 8.20 -1.02
662.00 288.00 0.00 8.20 -1.02
663.00 288.00 0.00 8.20 -1.02
664.00 288.00 0.00 8.20 -1.03
665.00 288.00 0.00 8.21 -1.03
666.00 288.00 0.00 8.21 -1.03
667.00 288.00 0.00 8.21 -1.03
668.00 288.00 0.00 8.21 -1.03
669.00 288.00 0.00 8.21 -1.03
670.00 288.00 0.00 8.21 -1.03
671.00 288.00 0.00 8.21 -1.03
672.00 288.00 0.00 8.21 -1.04
673.00 288.00 0.00 8.22 -1.04
674.00 288.00 0.00 8.22 -1.04
675.00 288.00 0.00 8.22 -1.04
676.00 288.00 0.00 8.22 -1.04
677.00 288.00 0.00 8.22 -1.04
678.00 288.00 0.00 8.22 -1.04
679.00 288.00 0.00 8.22 -1.04
680.00 288.00 0.00 8.22 -1.04
681.00 288.00 0.00 8.22 -1.04
682.00 288.00 0.00 8.23 -1.04
683.00 288.00 0.00 8.23 -1.05
684.00 288.00 0.00 8.23 -1.05
685.00 288.00 0.00 8.23 -1.05
686.00 288.00 0.00 8.23 -1.05
687.00 288.00 0.00 8.23 -1.05
688.00 288.00 0.00 8.23 -1.05
689.00 288.00 0.00 8.23 -1.05
690.00 288.00 0.00 8.23 -1.05
691.00 288.00 0.00 8.23 -1.05
692.00 288.00 0.00 8.23 -1.05
693.00 288.00 0.00 8.23 -1.05
694.00 288.00 0.00 8.24 -1.05
695.00 288.00 0.00 8.24 -1.05
696.00 288.00 0.00 8.24 -1.05
697.00 288.00 0.00 8.24 -1.05
698.00 288.00 0.00 8.24 -1.05
699.00 288.00 0.00 8.24 -1.05
700.00 288.00 0.00 8.24 -1.06
701.00 288.00 0.00 8.24 -1.06
702.00 288.00 0.00 8.24 -1.06
703.00 288.00 0.00 8.24 -1.06
704.00 288.00 0.00 8.24 -1.06
705.00 288.00 0.00 8.24 -1.06
706.00 288.00 0.00 8.24 -1.06
707.00 288.00 0.00 8.24 -1.06
708.00 288.00 0.00 8.24 -1.06
709.00 288.00 0.00 8.24 -1.06
710.00 288.00 0.00 8.24 -1.06
711.00 288.00 0.00 8.24 -1.06
712.00 288.00 0.00 8.24 -1.06
713.00 288.00 0.00 8.24 -1.06
714.00 288.00 0.00 8.24 -1.06
715.00 288.00 0.00 8.24 -1.06
716.00 288.00 0.00 8.24 -1.06
717.00 288.00 0.00 8.24 -1.06
718.00 288.00 0.00 8.24 -1.06
719.00 288.00 0.00 8.24 -1.06
720.00 288.00 0.00 8.24 -1.06
721.00 288.00 0.00 8.24 -1.06
722.00 288.00 0.00 8.24 -1.06
723.00 288.00 0.00 8.24 -1.06
724.00 288.00 0.00 8.24 -1.06
725.00 288.00 0.00 8.24 -1.06
726.00 288.00 0.00 8.24 -1.06
727.00 288.00 0.00 8.24 -1.06
728.00 288.00 0.00 8.24 -1.06
729.00 288.00 0.00 8.24 -1.06
730.00 288.00 0.00 8.24 -1.06
731.00 288.00 0.00 8.24 -1.06
732.00 288.00 0.00 8.24 -1.06
733.00 288.00 0.00 8.24 -1.06
734.00 288.00 0.00 8.24 -1.06
735.00 288.00 0.00 8.24 -1.06
736.00 288.00 0.00 8.24 -1.06
737.00 288.00 0.00 8.24 -1.06
738.00 288.00 0.00 8.24 -1.06
739.00 288.00 0.00 8.24 -1.06
740.00 288.00 0.00 8.24 -1.06
741.00 288.00 0.00 8.24 -1.06
742.00 288.00 0.00 8.24 -1.06
743.00 288.00 0.00 8.24 -1.06
744.00 288.00 0.00 8.24 -1.06
745.00 288.00 0.00 8.24 -1.06
746.00 288.00 0.00 8.24 -1.06
747.00 288.00 0.00 8.24 -1.06
748.00 288.00 0.00 8.24 -1.06
749.00 288.00 0.00 8.24 -1.06
750.00 288.00 0.00 8.24 -1.06
751.00 288.00 0.00 8.24 -1.06
752.00 288.00 0.00 8.24 -1.06
753.00 288.00 0.00 8.24 -1.06
754.00 288.00 0.00 8.24 -1.06
755.00 288.00 0.00 8.24 -1.06
756.00 288.00 0.00 8.24 -1.06
757.00 288.00 0.00 8.24 -1.06
758.00 288.00 0.00 8.24 -1.06
759.00 288.00 0.00 8.24 -1.06
760.00 288.00 0.00 8.24 -1.06
761.00 288.00 0.00 8.24 -1.06
762.00 288.00 0.00 8.24 -1.06
763.00 288.00 0.00 8.24 -1.06
764.00 288.00 0.00 8.24 -1.06
765.00 288.00 0.00 8.24 -1.06
766.00 288.00 0.00 8.24 -1.06
767.00 288.00 0.00 8.24 -1.06
768.00 288.00 0.00 8.24 -1.06
769.00 288.00 0.00 8.24 -1.06
770.00 288.00 0.00 8.24 -1.06
771.00 288.00 0.00 8.24 -1.06
772.00 288.00 0.00 8.24 -1.06
773.00 288.00 0.00 8.24 -1.06
774.00 288.00 0.00 8.24 -1.06
775.00 288.00 0.00 8.24 -1.06
776.00 288.00 0.00 8.24 -1.06
777.00 288.00 0.00 8.24 -1.06
778.00 288.00 0.00 8.24 -1.06
779.00 288.00 0.00 8.24 -1.06
780.00 288.00 0.00 8.24 -1.06
781.00 288.00 0.00 8.24 -1.06
782.00 288.00 0.00 8.24 -1.06
783.00 288.00 0.00 8.24 -1.06
784.00 288.00 0.00 8.24 -1.06
785.00 288.00 0.00 8.24 -1.06
786.00 288.00 0.00 8.24 -1.06
787.00 288.00 0.00 8.24 -1.06
788.00 288.00 0.00 8.24 -1.06
789.00 288.00 0.00 8.24 -1.06
790.00 288.00 0.00 8.24 -1.06
791.00 288.00 0.00 8.24 -1.06
792.00 288.00 0.00 8.24 -1.06
793.00 288.00 0.00 8.24 -1.06
794.00 288.00 0.00 8.24 -1.06
795.00 288.00 0.00 8.24 -1.06
796.00 288.00 0.00 8.24 -1.06
797.00 288.00 0.00 8.24 -1.06
798.00 288.00 0.00 8.24 -1.06
799.00 288.00 0.00 8.24 -1.06
800.00 288.00 0.00 8.24 -1.06
801.00 288.00 0.00 8.24 -1.06
802.00 288.00 0.00 8.24 -1.06
803.00 288.00 0.00 8.24 -1.06
804.00 288.00 0.00 8.24 -1.06
805.00 288.00 0.00 8.24 -1.06
806.00 288.00 0.00 8.24 -1.06
807.00 288.00 0.00 8.24 -1.06
808.00 288.00 0.00 8.24 -1.06
809.00 288.00 0.00 8.24 -1.06
810.00 288.00 0.00 8.24 -1.06
811.00 288.00 0.00 8.24 -1.06
812.00 288.00 0.00 8.24 -1.06
813.00 288.00 0.00 8.24 -1.06
814.00 288.00 0.00 8.24 -1.06
815.00 288.00 0.00 8.24 -1.06
816.00 288.00 0.00 8.24 -1.06
817.00 288.00 0.00 8.24 -1.06
818.00 288.00 0.00 8.24 -1.06
819.00 288.00 0.00 8.24 -1.06
820.00 288.00 0.00 8.24 -1.06
821.00 288.00 0.00 8.24 -1.06
822.00 288.00 0.00 8.24 -1.06
823.00 288.00 0.00 8.24 -1.06
824.00 288.00 0.00 8.24 -1.06
825.00 288.00 0.00 8.24 -1.06
826.00 288.00 0.00 8.24 -1.06
827.00 288.00 0.00 8.24 -1.06
828.00 288.00 0.00 8.24 -1.06
829.00 288.00 0.00 8.24 -1.06
830.00 288.00 0.00 8.24 -1.06
831.00 288.00 0.00 8.24 -1.06
