1000.00 288.00 00.00
0.00 288.00 0.00 9.61 -4.00
1.00 288.00 0.00 9.61 -4.00
2.00 288.00 0.00 9.61 -4.00
3.00 288.00 0.00 9.61 -4.00
4.00 288.00 0.00 9.61 -4.00
5.00 288.00 0.00 9.61 -4.00
6.00 288.00 0.00 9.61 -4.00
7.00 288.00 0.00 9.61 -4.00
8.00 288.00 0.00 9.61 -4.00
9.00 288.00 0.00 9.61 -4.00
10.00 288.00 0.00 9.61 -4.00
11.00 288.00 0.00 9.61 -4.00
12.00 288.00 0.00 9.61 -4.00
13.00 288.00 0.00 9.61 -4.00
14.00 288.00 0.00 9.61 -4.00
15.00 288.00 0.00 9.61 -4.00
16.00 288.00 0.00 9.61 -4.00
17.00 288.00 0.00 9.61 -4.00
18.00 288.00 0.00 9.61 -4.00
19.00 288.00 0.00 9.61 -4.00
20.00 288.00 0.00 9.61 -4.00
21.00 288.00 0.00 9.61 -4.00
22.00 288.00 0.00 9.61 -4.00
23.00 288.00 0.00 9.61 -4.00
24.00 288.00 0.00 9.61 -4.00
25.00 288.00 0.00 9.61 -4.00
26.00 288.00 0.00 9.61 -4.00
27.00 288.00 0.00 9.61 -4.00
28.00 288.00 0.00 9.61 -4.00
29.00 288.00 0.00 9.61 -4.00
30.00 288.00 0.00 9.61 -4.00
31.00 288.00 0.00 9.61 -4.00
32.00 288.00 0.00 9.61 -4.00
33.00 288.00 0.00 9.61 -4.00
34.00 288.00 0.00 9.61 -4.00
35.00 288.00 0.00 9.61 -4.00
36.00 288.00 0.00 9.61 -4.00
37.00 288.00 0.00 9.61 -4.00
38.00 288.00 0.00 9.61 -4.00
39.00 288.00 0.00 9.61 -4.00
40.00 288.00 0.00 9.61 -4.00
41.00 288.00 0.00 9.61 -4.00
42.00 288.00 0.00 9.61 -4.00
43.00 288.00 0.00 9.61 -4.00
44.00 288.00 0.00 9.61 -4.00
45.00 288.00 0.00 9.61 -4.00
46.00 288.00 0.00 9.61 -4.00
47.00 288.00 0.00 9.61 -4.00
48.00 288.00 0.00 9.61 -4.00
49.00 288.00 0.00 9.61 -4.00
50.00 288.00 0.00 9.61 -4.00
51.00 288.00 0.00 9.61 -4.00
52.00 288.00 0.00 9.61 -4.00
53.00 288.00 0.00 9.61 -4.00
54.00 288.00 0.00 9.61 -4.00
55.00 288.00 0.00 9.61 -4.00
56.00 288.00 0.00 9.61 -4.00
57.00 288.00 0.00 9.61 -4.00
58.00 288.00 0.00 9.61 -4.00
59.00 288.00 0.00 9.61 -4.00
60.00 288.00 0.00 9.61 -4.00
61.00 288.00 0.00 9.61 -4.00
62.00 288.00 0.00 9.61 -4.00
63.00 288.00 0.00 9.61 -4.00
64.00 288.00 0.00 9.61 -4.00
65.00 288.00 0.00 9.61 -4.00
66.00 288.00 0.00 9.61 -4.00
67.00 288.00 0.00 9.61 -4.00
68.00 288.00 0.00 9.61 -4.00
69.00 288.00 0.00 9.61 -4.00
70.00 288.00 0.00 9.61 -4.00
71.00 288.00 0.00 9.61 -4.00
72.00 288.00 0.00 9.61 -4.00
73.00 288.00 0.00 9.61 -4.00
74.00 288.00 0.00 9.61 -4.00
75.00 288.00 0.00 9.61 -4.00
76.00 288.00 0.00 9.61 -4.00
77.00 288.00 0.00 9.61 -4.00
78.00 288.00 0.00 9.61 -4.00
79.00 288.00 0.00 9.61 -4.00
80.00 288.00 0.00 9.61 -4.00
81.00 288.00 0.00 9.61 -4.00
82.00 288.00 0.00 9.61 -4.00
83.00 288.00 0.00 9.61 -4.00
84.00 288.00 0.00 9.61 -4.00
85.00 288.00 0.00 9.61 -4.00
86.00 288.00 0.00 9.61 -4.00
87.00 288.00 0.00 9.61 -4.00
88.00 288.00 0.00 9.61 -4.00
89.00 288.00 0.00 9.61 -4.00
90.00 288.00 0.00 9.61 -4.00
91.00 288.00 0.00 9.61 -4.00
92.00 288.00 0.00 9.61 -4.00
93.00 288.00 0.00 9.61 -4.00
94.00 288.00 0.00 9.61 -4.00
95.00 288.00 0.00 9.61 -4.00
96.00 288.00 0.00 9.61 -4.00
97.00 288.00 0.00 9.61 -4.00
98.00 288.00 0.00 9.61 -4.00
99.00 288.00 0.00 9.61 -4.00
100.00 288.00 0.00 9.61 -4.00
101.00 288.00 0.00 9.61 -4.00
102.00 288.00 0.00 9.61 -4.00
103.00 288.00 0.00 9.61 -4.00
104.00 288.00 0.00 9.61 -4.00
105.00 288.00 0.00 9.61 -4.00
106.00 288.00 0.00 9.61 -4.00
107.00 288.00 0.00 9.61 -4.00
108.00 288.00 0.00 9.61 -4.00
109.00 288.00 0.00 9.61 -4.00
110.00 288.00 0.00 9.61 -4.00
111.00 288.00 0.00 9.61 -4.00
112.00 288.00 0.00 9.61 -4.00
113.00 288.00 0.00 9.61 -4.00
114.00 288.00 0.00 9.61 -4.00
115.00 288.00 0.00 9.61 -4.00
116.00 288.00 0.00 9.61 -4.00
117.00 288.00 0.00 9.61 -4.00
118.00 288.00 0.00 9.61 -4.00
119.00 288.00 0.00 9.61 -4.00
120.00 288.00 0.00 9.61 -4.00
121.00 288.00 0.00 9.61 -3.99
122.00 288.00 0.00 9.61 -3.99
123.00 288.00 0.00 9.61 -3.99
124.00 288.00 0.00 9.61 -3.99
125.00 288.00 0.00 9.61 -3.99
126.00 288.00 0.00 9.61 -3.99
127.00 288.00 0.00 9.61 -3.99
128.00 288.00 0.00 9.60 -3.99
129.00 288.00 0.00 9.60 -3.98
130.00 288.00 0.00 9.60 -3.98
131.00 288.00 0.00 9.60 -3.98
132.00 288.00 0.00 9.60 -3.98
133.00 288.00 0.00 9.60 -3.98
134.00 288.00 0.00 9.60 -3.97
135.00 288.00 0.00 9.59 -3.97
136.00 288.00 0.00 9.59 -3.97
137.00 288.00 0.00 9.59 -3.97
138.00 288.00 0.00 9.59 -3.97
139.00 288.00 0.00 9.59 -3.96
140.00 288.00 0.00 9.58 -3.96
141.00 288.00 0.00 9.58 -3.96
142.00 288.00 0.00 9.58 -3.95
143.00 288.00 0.00 9.58 -3.95
144.00 288.00 0.00 9.58 -3.95
145.00 288.00 0.00 9.57 -3.94
146.00 288.00 0.00 9.57 -3.94
147.00 288.00 0.00 9.57 -3.94
148.00 288.00 0.00 9.56 -3.93
149.00 288.00 0.00 9.56 -3.93
150.00 288.00 0.00 9.56 -3.92
151.00 288.00 0.00 9.56 -3.92
152.00 288.00 0.00 9.55 -3.92
153.00 288.00 0.00 9.55 -3.91
154.00 288.00 0.00 9.55 -3.91
155.00 288.00 0.00 9.54 -3.90
156.00 288.00 0.00 9.54 -3.90
157.00 288.00 0.00 9.54 -3.89
158.00 288.00 0.00 9.53 -3.89
159.00 288.00 0.00 9.53 -3.88
160.00 288.00 0.00 9.53 -3.88
161.00 288.00 0.00 9.52 -3.87
162.00 288.00 0.00 9.52 -3.87
163.00 288.00 0.00 9.51 -3.86
164.00 288.00 0.00 9.51 -3.86
165.00 288.00 0.00 9.51 -3.85
166.00 288.00 0.00 9.50 -3.85
167.00 288.00 0.00 9.50 -3.84
168.00 288.00 0.00 9.49 -3.83
169.00 288.00 0.00 9.49 -3.83
170.00 288.00 0.00 9.48 -3.82
171.00 288.00 0.00 9.48 -3.81
172.00 288.00 0.00 9.47 -3.81
173.00 288.00 0.00 9.47 -3.80
174.00 288.00 0.00 9.46 -3.79
175.00 288.00 0.00 9.46 -3.79
176.00 288.00 0.00 9.45 -3.78
177.00 288.00 0.00 9.45 -3.77
178.00 288.00 0.00 9.44 -3.77
179.00 288.00 0.00 9.44 -3.76
180.00 288.00 0.00 9.43 -3.75
181.00 288.00 0.00 9.43 -3.74
182.00 288.00 0.00 9.42 -3.74
183.00 288.00 0.00 9.42 -3.73
184.00 288.00 0.00 9.41 -3.72
185.00 288.00 0.00 9.40 -3.71
186.00 288.00 0.00 9.40 -3.70
187.00 288.00 0.00 9.39 -3.69
188.00 288.00 0.00 9.39 -3.69
189.00 288.00 0.00 9.38 -3.68
190.00 288.00 0.00 9.37 -3.67
191.00 288.00 0.00 9.37 -3.66
192.00 288.00 0.00 9.36 -3.65
193.00 288.00 0.00 9.35 -3.64
194.00 288.00 0.00 9.35 -3.63
195.00 288.00 0.00 9.34 -3.62
196.00 288.00 0.00 9.33 -3.61
197.00 288.00 0.00 9.33 -3.60
198.00 288.00 0.00 9.32 -3.59
199.00 288.00 0.00 9.31 -3.58
200.00 288.00 0.00 9.31 -3.57
201.00 288.00 0.00 9.30 -3.56
202.00 288.00 0.00 9.29 -3.55
203.00 288.00 0.00 9.28 -3.54
204.00 288.00 0.00 9.28 -3.53
205.00 288.00 0.00 9.27 -3.52
206.00 288.00 0.00 9.26 -3.51
207.00 288.00 0.00 9.25 -3.50
208.00 288.00 0.00 9.25 -3.49
209.00 288.00 0.00 9.24 -3.48
210.00 288.00 0.00 9.23 -3.47
211.00 288.00 0.00 9.22 -3.46
212.00 288.00 0.00 9.22 -3.44
213.00 288.00 0.00 9.21 -3.43
214.00 288.00 0.00 9.20 -3.42
215.00 288.00 0.00 9.19 -3.41
216.00 288.00 0.00 9.18 -3.40
217.00 288.00 0.00 9.17 -3.39
218.00 288.00 0.00 9.16 -3.37
219.00 288.00 0.00 9.16 -3.36
220.00 288.00 0.00 9.15 -3.35
221.00 288.00 0.00 9.14 -3.34
222.00 288.00 0.00 9.13 -3.32
223.00 288.00 0.00 9.12 -3.31
224.00 288.00 0.00 9.11 -3.30
225.00 288.00 0.00 9.10 -3.28
226.00 288.00 0.00 9.09 -3.27
227.00 288.00 0.00 9.08 -3.26
228.00 288.00 0.00 9.07 -3.24
229.00 288.00 0.00 9.06 -3.23
230.00 288.00 0.00 9.06 -3.21
231.00 288.00 0.00 9.05 -3.20
232.00 288.00 0.00 9.04 -3.19
233.00 288.00 0.00 9.03 -3.17
234.00 288.00 0.00 9.02 -3.16
235.00 288.00 0.00 9.01 -3.14
236.00 288.00 0.00 9.00 -3.13
237.00 288.00 0.00 8.99 -3.11
238.00 288.00 0.00 8.98 -3.10
239.00 288.00 0.00 8.96 -3.08
240.00 288.00 0.00 8.95 -3.07
241.00 288.00 0.00 8.94 -3.05
242.00 288.00 0.00 8.93 -3.04
243.00 288.00 0.00 8.92 -3.02
244.00 288.00 0.00 8.91 -3.00
245.00 288.00 0.00 8.90 -2.99
246.00 288.00 0.00 8.89 -2.97
247.00 288.00 0.00 8.88 -2.96
248.00 288.00 0.00 8.87 -2.94
249.00 288.00 0.00 8.86 -2.92
250.00 288.00 0.00 8.85 -2.91
251.00 288.00 0.00 8.83 -2.89
252.00 288.00 0.00 8.82 -2.87
253.00 288.00 0.00 8.81 -2.86
254.00 288.00 0.00 8.80 -2.84
255.00 288.00 0.00 8.79 -2.82
256.00 288.00 0.00 8.78 -2.80
257.00 288.00 0.00 8.76 -2.79
258.00 288.00 0.00 8.75 -2.77
259.00 288.00 0.00 8.74 -2.75
260.00 288.00 0.00 8.73 -2.73
261.00 288.00 0.00 8.72 -2.71
262.00 288.00 0.00 8.70 -2.69
263.00 288.00 0.00 8.69 -2.68
264.00 288.00 0.00 8.68 -2.66
265.00 288.00 0.00 8.67 -2.64
266.00 288.00 0.00 8.65 -2.62
267.00 288.00 0.00 8.64 -2.60
268.00 288.00 0.00 8.63 -2.58
269.00 288.00 0.00 8.62 -2.56
270.00 288.00 0.00 8.60 -2.54
271.00 288.00 0.00 8.59 -2.52
272.00 288.00 0.00 8.58 -2.50
273.00 288.00 0.00 8.56 -2.48
274.00 288.00 0.00 8.55 -2.46
275.00 288.00 0.00 8.54 -2.44
276.00 288.00 0.00 8.52 -2.42
277.00 288.00 0.00 8.51 -2.40
278.00 288.00 0.00 8.50 -2.38
279.00 288.00 0.00 8.48 -2.36
280.00 288.00 0.00 8.47 -2.34
281.00 288.00 0.00 8.46 -2.31
282.00 288.00 0.00 8.44 -2.29
283.00 288.00 0.00 8.43 -2.27
284.00 288.00 0.00 8.41 -2.25
285.00 288.00 0.00 8.40 -2.23
286.00 288.00 0.00 8.38 -2.21
287.00 288.00 0.00 8.37 -2.18
288.00 288.00 0.00 8.36 -2.16
289.00 288.00 0.00 8.34 -2.14
290.00 288.00 0.00 8.33 -2.12
291.00 288.00 0.00 8.31 -2.09
292.00 288.00 0.00 8.30 -2.07
293.00 288.00 0.00 8.28 -2.05
294.00 288.00 0.00 8.27 -2.02
295.00 288.00 0.00 8.25 -2.00
296.00 288.00 0.00 8.24 -1.98
297.00 288.00 0.00 8.22 -1.95
298.00 288.00 0.00 8.21 -1.93
299.00 288.00 0.00 8.19 -1.91
300.00 288.00 0.00 8.18 -1.88
301.00 288.00 0.00 8.16 -1.86
302.00 288.00 0.00 8.15 -1.84
303.00 288.00 0.00 8.13 -1.81
304.00 288.00 0.00 8.12 -1.79
305.00 288.00 0.00 8.10 -1.76
306.00 288.00 0.00 8.09 -1.74
307.00 288.00 0.00 8.07 -1.72
308.00 288.00 0.00 8.06 -1.69
309.00 288.00 0.00 8.04 -1.67
310.00 288.00 0.00 8.03 -1.65
311.00 288.00 0.00 8.01 -1.62
312.00 288.00 0.00 8.00 -1.60
313.00 288.00 0.00 7.98 -1.57
314.00 288.00 0.00 7.97 -1.55
315.00 288.00 0.00 7.95 -1.53
316.00 288.00 0.00 7.94 -1.50
317.00 288.00 0.00 7.92 -1.48
318.00 288.00 0.00 7.91 -1.46
319.00 288.00 0.00 7.89 -1.43
320.00 288.00 0.00 7.88 -1.41
321.00 288.00 0.00 7.86 -1.38
322.00 288.00 0.00 7.85 -1.36
323.00 288.00 0.00 7.83 -1.34
324.00 288.00 0.00 7.82 -1.31
325.00 288.00 0.00 7.80 -1.29
326.00 288.00 0.00 7.79 -1.26
327.00 288.00 0.00 7.77 -1.24
328.00 288.00 0.00 7.76 -1.22
329.00 288.00 0.00 7.74 -1.19
330.00 288.00 0.00 7.73 -1.17
331.00 288.00 0.00 7.71 -1.14
332.00 288.00 0.00 7.70 -1.12
333.00 288.00 0.00 7.68 -1.10
334.00 288.00 0.00 7.67 -1.07
335.00 288.00 0.00 7.65 -1.05
336.00 288.00 0.00 7.64 -1.02
337.00 288.00 0.00 7.62 -1.00
338.00 288.00 0.00 7.61 -0.97
339.00 288.00 0.00 7.59 -0.95
340.00 288.00 0.00 7.58 -0.93
341.00 288.00 0.00 7.56 -0.90
342.00 288.00 0.00 7.55 -0.88
343.00 288.00 0.00 7.53 -0.85
344.00 288.00 0.00 7.52 -0.83
345.00 288.00 0.00 7.50 -0.80
346.00 288.00 0.00 7.49 -0.78
347.00 288.00 0.00 7.47 -0.76
348.00 288.00 0.00 7.46 -0.73
349.00 288.00 0.00 7.44 -0.71
350.00 288.00 0.00 7.43 -0.68
351.00 288.00 0.00 7.41 -0.66
352.00 288.00 0.00 7.40 -0.63
353.00 288.00 0.00 7.38 -0.61
354.00 288.00 0.00 7.37 -0.59
355.00 288.00 0.00 7.35 -0.56
356.00 288.00 0.00 7.34 -0.54
357.00 288.00 0.00 7.32 -0.51
358.00 288.00 0.00 7.31 -0.49
359.00 288.00 0.00 7.29 -0.46
360.00 288.00 0.00 7.28 -0.44
361.00 288.00 0.00 7.26 -0.42
362.00 288.00 0.00 7.25 -0.39
363.00 288.00 0.00 7.23 -0.37
364.00 288.00 0.00 7.22 -0.34
365.00 288.00 0.00 7.20 -0.32
366.00 288.00 0.00 7.19 -0.29
367.00 288.00 0.00 7.17 -0.27
368.00 288.00 0.00 7.16 -0.24
369.00 288.00 0.00 7.14 -0.22
370.00 288.00 0.00 7.13 -0.20
371.00 288.00 0.00 7.11 -0.17
372.00 288.00 0.00 7.10 -0.15
373.00 288.00 0.00 7.08 -0.12
374.00 288.00 0.00 7.07 -0.10
375.00 288.00 0.00 7.05 -0.07
376.00 288.00 0.00 7.04 -0.05
377.00 288.00 0.00 7.02 -0.02
378.00 288.00 0.00 7.01 0.00
379.00 288.00 0.00 6.99 0.02
380.00 288.00 0.00 6.98 0.05
381.00 288.00 0.00 6.96 0.07
382.00 288.00 0.00 6.95 0.10
383.00 288.00 0.00 6.93 0.12
384.00 288.00 0.00 6.92 0.15
385.00 288.00 0.00 6.90 0.17
386.00 288.00 0.00 6.89 0.20
387.00 288.00 0.00 6.87 0.22
388.00 288.00 0.00 6.86 0.24
389.00 288.00 0.00 6.84 0.27
390.00 288.00 0.00 6.83 0.29
391.00 288.00 0.00 6.81 0.32
392.00 288.00 0.00 6.80 0.34
393.00 288.00 0.00 6.78 0.37
394.00 288.00 0.00 6.77 0.39
395.00 288.00 0.00 6.75 0.42
396.00 288.00 0.00 6.74 0.44
397.00 288.00 0.00 6.72 0.46
398.00 288.00 0.00 6.71 0.49
399.00 288.00 0.00 6.69 0.51
400.00 288.00 0.00 6.68 0.54
401.00 288.00 0.00 6.66 0.56
402.00 288.00 0.00 6.65 0.59
403.00 288.00 0.00 6.63 0.61
404.00 288.00 0.00 6.62 0.63
405.00 288.00 0.00 6.60 0.66
406.00 288.00 0.00 6.59 0.68
407.00 288.00 0.00 6.57 0.71
408.00 288.00 0.00 6.56 0.73
409.00 288.00 0.00 6.54 0.76
410.00 288.00 0.00 6.53 0.78
411.00 288.00 0.00 6.51 0.80
412.00 288.00 0.00 6.50 0.83
413.00 288.00 0.00 6.48 0.85
414.00 288.00 0.00 6.47 0.88
415.00 288.00 0.00 6.45 0.90
416.00 288.00 0.00 6.44 0.93
417.00 288.00 0.00 6.42 0.95
418.00 288.00 0.00 6.41 0.97
419.00 288.00 0.00 6.39 1.00
420.00 288.00 0.00 6.38 1.02
421.00 288.00 0.00 6.36 1.05
422.00 288.00 0.00 6.35 1.07
423.00 288.00 0.00 6.33 1.10
424.00 288.00 0.00 6.32 1.12
425.00 288.00 0.00 6.30 1.14
426.00 288.00 0.00 6.29 1.17
427.00 288.00 0.00 6.27 1.19
428.00 288.00 0.00 6.26 1.22
429.00 288.00 0.00 6.24 1.24
430.00 288.00 0.00 6.23 1.26
431.00 288.00 0.00 6.21 1.29
432.00 288.00 0.00 6.20 1.31
433.00 288.00 0.00 6.18 1.34
434.00 288.00 0.00 6.17 1.36
435.00 288.00 0.00 6.15 1.38
436.00 288.00 0.00 6.14 1.41
437.00 288.00 0.00 6.12 1.43
438.00 288.00 0.00 6.11 1.46
439.00 288.00 0.00 6.09 1.48
440.00 288.00 0.00 6.08 1.50
441.00 288.00 0.00 6.06 1.53
442.00 288.00 0.00 6.05 1.55
443.00 288.00 0.00 6.03 1.57
444.00 288.00 0.00 6.02 1.60
445.00 288.00 0.00 6.00 1.62
446.00 288.00 0.00 5.99 1.65
447.00 288.00 0.00 5.97 1.67
448.00 288.00 0.00 5.96 1.69
449.00 288.00 0.00 5.94 1.72
450.00 288.00 0.00 5.93 1.74
451.00 288.00 0.00 5.91 1.76
452.00 288.00 0.00 5.90 1.79
453.00 288.00 0.00 5.88 1.81
454.00 288.00 0.00 5.87 1.84
455.00 288.00 0.00 5.85 1.86
456.00 288.00 0.00 5.84 1.88
457.00 288.00 0.00 5.82 1.91
458.00 288.00 0.00 5.81 1.93
459.00 288.00 0.00 5.79 1.95
460.00 288.00 0.00 5.78 1.98
461.00 288.00 0.00 5.76 2.00
462.00 288.00 0.00 5.75 2.02
463.00 288.00 0.00 5.73 2.05
464.00 288.00 0.00 5.72 2.07
465.00 288.00 0.00 5.70 2.09
466.00 288.00 0.00 5.69 2.12
467.00 288.00 0.00 5.67 2.14
468.00 288.00 0.00 5.66 2.16
469.00 288.00 0.00 5.64 2.18
470.00 288.00 0.00 5.63 2.21
471.00 288.00 0.00 5.62 2.23
472.00 288.00 0.00 5.60 2.25
473.00 288.00 0.00 5.59 2.27
474.00 288.00 0.00 5.57 2.29
475.00 288.00 0.00 5.56 2.31
476.00 288.00 0.00 5.54 2.34
477.00 288.00 0.00 5.53 2.36
478.00 288.00 0.00 5.52 2.38
479.00 288.00 0.00 5.50 2.40
480.00 288.00 0.00 5.49 2.42
481.00 288.00 0.00 5.48 2.44
482.00 288.00 0.00 5.46 2.46
483.00 288.00 0.00 5.45 2.48
484.00 288.00 0.00 5.44 2.50
485.00 288.00 0.00 5.42 2.52
486.00 288.00 0.00 5.41 2.54
487.00 288.00 0.00 5.40 2.56
488.00 288.00 0.00 5.38 2.58
489.00 288.00 0.00 5.37 2.60
490.00 288.00 0.00 5.36 2.62
491.00 288.00 0.00 5.35 2.64
492.00 288.00 0.00 5.33 2.66
493.00 288.00 0.00 5.32 2.68
494.00 288.00 0.00 5.31 2.69
495.00 288.00 0.00 5.30 2.71
496.00 288.00 0.00 5.28 2.73
497.00 288.00 0.00 5.27 2.75
498.00 288.00 0.00 5.26 2.77
499.00 288.00 0.00 5.25 2.79
500.00 288.00 0.00 5.24 2.80
501.00 288.00 0.00 5.22 2.82
502.00 288.00 0.00 5.21 2.84
503.00 288.00 0.00 5.20 2.86
504.00 288.00 0.00 5.19 2.87
505.00 288.00 0.00 5.18 2.89
506.00 288.00 0.00 5.17 2.91
507.00 288.00 0.00 5.15 2.92
508.00 288.00 0.00 5.14 2.94
509.00 288.00 0.00 5.13 2.96
510.00 288.00 0.00 5.12 2.97
511.00 288.00 0.00 5.11 2.99
512.00 288.00 0.00 5.10 3.00
513.00 288.00 0.00 5.09 3.02
514.00 288.00 0.00 5.08 3.04
515.00 288.00 0.00 5.07 3.05
516.00 288.00 0.00 5.06 3.07
517.00 288.00 0.00 5.05 3.08
518.00 288.00 0.00 5.04 3.10
519.00 288.00 0.00 5.02 3.11
520.00 288.00 0.00 5.01 3.13
521.00 288.00 0.00 5.00 3.14
522.00 288.00 0.00 4.99 3.16
523.00 288.00 0.00 4.98 3.17
524.00 288.00 0.00 4.97 3.19
525.00 288.00 0.00 4.96 3.20
526.00 288.00 0.00 4.95 3.21
527.00 288.00 0.00 4.94 3.23
528.00 288.00 0.00 4.94 3.24
529.00 288.00 0.00 4.93 3.26
530.00 288.00 0.00 4.92 3.27
531.00 288.00 0.00 4.91 3.28
532.00 288.00 0.00 4.90 3.30
533.00 288.00 0.00 4.89 3.31
534.00 288.00 0.00 4.88 3.32
535.00 288.00 0.00 4.87 3.34
536.00 288.00 0.00 4.86 3.35
537.00 288.00 0.00 4.85 3.36
538.00 288.00 0.00 4.84 3.37
539.00 288.00 0.00 4.84 3.39
540.00 288.00 0.00 4.83 3.40
541.00 288.00 0.00 4.82 3.41
542.00 288.00 0.00 4.81 3.42
543.00 288.00 0.00 4.80 3.43
544.00 288.00 0.00 4.79 3.44
545.00 288.00 0.00 4.78 3.46
546.00 288.00 0.00 4.78 3.47
547.00 288.00 0.00 4.77 3.48
548.00 288.00 0.00 4.76 3.49
549.00 288.00 0.00 4.75 3.50
550.00 288.00 0.00 4.75 3.51
551.00 288.00 0.00 4.74 3.52
552.00 288.00 0.00 4.73 3.53
553.00 288.00 0.00 4.72 3.54
554.00 288.00 0.00 4.72 3.55
555.00 288.00 0.00 4.71 3.56
556.00 288.00 0.00 4.70 3.57
557.00 288.00 0.00 4.69 3.58
558.00 288.00 0.00 4.69 3.59
559.00 288.00 0.00 4.68 3.60
560.00 288.00 0.00 4.67 3.61
561.00 288.00 0.00 4.67 3.62
562.00 288.00 0.00 4.66 3.63
563.00 288.00 0.00 4.65 3.64
564.00 288.00 0.00 4.65 3.65
565.00 288.00 0.00 4.64 3.66
566.00 288.00 0.00 4.63 3.67
567.00 288.00 0.00 4.63 3.68
568.00 288.00 0.00 4.62 3.69
569.00 288.00 0.00 4.61 3.69
570.00 288.00 0.00 4.61 3.70
571.00 288.00 0.00 4.60 3.71
572.00 288.00 0.00 4.60 3.72
573.00 288.00 0.00 4.59 3.73
574.00 288.00 0.00 4.58 3.74
575.00 288.00 0.00 4.58 3.74
576.00 288.00 0.00 4.57 3.75
577.00 288.00 0.00 4.57 3.76
578.00 288.00 0.00 4.56 3.77
579.00 288.00 0.00 4.56 3.77
580.00 288.00 0.00 4.55 3.78
581.00 288.00 0.00 4.55 3.79
582.00 288.00 0.00 4.54 3.79
583.00 288.00 0.00 4.54 3.80
584.00 288.00 0.00 4.53 3.81
585.00 288.00 0.00 4.53 3.81
586.00 288.00 0.00 4.52 3.82
587.00 288.00 0.00 4.52 3.83
588.00 288.00 0.00 4.51 3.83
589.00 288.00 0.00 4.51 3.84
590.00 288.00 0.00 4.50 3.85
591.00 288.00 0.00 4.50 3.85
592.00 288.00 0.00 4.49 3.86
593.00 288.00 0.00 4.49 3.86
594.00 288.00 0.00 4.49 3.87
595.00 288.00 0.00 4.48 3.87
596.00 288.00 0.00 4.48 3.88
597.00 288.00 0.00 4.47 3.88
598.00 288.00 0.00 4.47 3.89
599.00 288.00 0.00 4.47 3.89
600.00 288.00 0.00 4.46 3.90
601.00 288.00 0.00 4.46 3.90
602.00 288.00 0.00 4.46 3.91
603.00 288.00 0.00 4.45 3.91
604.00 288.00 0.00 4.45 3.92
605.00 288.00 0.00 4.45 3.92
606.00 288.00 0.00 4.44 3.92
607.00 288.00 0.00 4.44 3.93
608.00 288.00 0.00 4.44 3.93
609.00 288.00 0.00 4.44 3.94
610.00 288.00 0.00 4.43 3.94
611.00 288.00 0.00 4.43 3.94
612.00 288.00 0.00 4.43 3.95
613.00 288.00 0.00 4.42 3.95
614.00 288.00 0.00 4.42 3.95
615.00 288.00 0.00 4.42 3.96
616.00 288.00 0.00 4.42 3.96
617.00 288.00 0.00 4.42 3.96
618.00 288.00 0.00 4.41 3.97
619.00 288.00 0.00 4.41 3.97
620.00 288.00 0.00 4.41 3.97
621.00 288.00 0.00 4.41 3.97
622.00 288.00 0.00 4.41 3.97
623.00 288.00 0.00 4.40 3.98
624.00 288.00 0.00 4.40 3.98
625.00 288.00 0.00 4.40 3.98
626.00 288.00 0.00 4.40 3.98
627.00 288.00 0.00 4.40 3.98
628.00 288.00 0.00 4.40 3.99
629.00 288.00 0.00 4.40 3.99
630.00 288.00 0.00 4.39 3.99
631.00 288.00 0.00 4.39 3.99
632.00 288.00 0.00 4.39 3.99
633.00 288.00 0.00 4.39 3.99
634.00 288.00 0.00 4.39 3.99
635.00 288.00 0.00 4.39 3.99
636.00 288.00 0.00 4.39 4.00
637.00 288.00 0.00 4.39 4.00
638.00 288.00 0.00 4.39 4.00
639.00 288.00 0.00 4.39 4.00
640.00 288.00 0.00 4.39 4.00
641.00 288.00 0.00 4.39 4.00
642.00 288.00 0.00 4.39 4.00
643.00 288.00 0.00 4.39 4.00
644.00 288.00 0.00 4.39 4.00
645.00 288.00 0.00 4.39 4.00
646.00 288.00 0.00 4.39 4.00
647.00 288.00 0.00 4.39 4.00
648.00 288.00 0.00 4.39 4.00
649.00 288.00 0.00 4.39 4.00
650.00 288.00 0.00 4.39 4.00
651.00 288.00 0.00 4.39 4.00
652.00 288.00 0.00 4.39 4.00
653.00 288.00 0.00 4.39 4.00
654.00 288.00 0.00 4.39 4.00
655.00 288.00 0.00 4.39 4.00
656.00 288.00 0.00 4.39 4.00
657.00 288.00 0.00 4.39 4.00
658.00 288.00 0.00 4.39 4.00
659.00 288.00 0.00 4.39 4.00
660.00 288.00 0.00 4.39 4.00
661.00 288.00 0.00 4.39 4.00
662.00 288.00 0.00 4.39 4.00
663.00 288.00 0.00 4.39 4.00
664.00 288.00 0.00 4.39 4.00
665.00 288.00 0.00 4.39 4.00
666.00 288.00 0.00 4.39 4.00
667.00 288.00 0.00 4.39 4.00
668.00 288.00 0.00 4.39 4.00
669.00 288.00 0.00 4.39 4.00
670.00 288.00 0.00 4.39 4.00
671.00 288.00 0.00 4.39 4.00
672.00 288.00 0.00 4.39 4.00
673.00 288.00 0.00 4.39 4.00
674.00 288.00 0.00 4.39 4.00
675.00 288.00 0.00 4.39 4.00
676.00 288.00 0.00 4.39 4.00
677.00 288.00 0.00 4.39 4.00
678.00 288.00 0.00 4.39 4.00
679.00 288.00 0.00 4.39 4.00
680.00 288.00 0.00 4.39 4.00
681.00 288.00 0.00 4.39 4.00
682.00 288.00 0.00 4.39 4.00
683.00 288.00 0.00 4.39 4.00
684.00 288.00 0.00 4.39 4.00
685.00 288.00 0.00 4.39 4.00
686.00 288.00 0.00 4.39 4.00
687.00 288.00 0.00 4.39 4.00
688.00 288.00 0.00 4.39 4.00
689.00 288.00 0.00 4.39 4.00
690.00 288.00 0.00 4.39 4.00
691.00 288.00 0.00 4.39 4.00
692.00 288.00 0.00 4.39 4.00
693.00 288.00 0.00 4.39 4.00
694.00 288.00 0.00 4.39 4.00
695.00 288.00 0.00 4.39 4.00
696.00 288.00 0.00 4.39 4.00
697.00 288.00 0.00 4.39 4.00
698.00 288.00 0.00 4.39 4.00
699.00 288.00 0.00 4.39 4.00
700.00 288.00 0.00 4.39 4.00
701.00 288.00 0.00 4.39 4.00
702.00 288.00 0.00 4.39 4.00
703.00 288.00 0.00 4.39 4.00
704.00 288.00 0.00 4.39 4.00
705.00 288.00 0.00 4.39 4.00
706.00 288.00 0.00 4.39 4.00
707.00 288.00 0.00 4.39 4.00
708.00 288.00 0.00 4.39 4.00
709.00 288.00 0.00 4.39 4.00
710.00 288.00 0.00 4.39 4.00
711.00 288.00 0.00 4.39 4.00
712.00 288.00 0.00 4.39 4.00
713.00 288.00 0.00 4.39 4.00
714.00 288.00 0.00 4.39 4.00
715.00 288.00 0.00 4.39 4.00
716.00 288.00 0.00 4.39 4.00
717.00 288.00 0.00 4.39 4.00
718.00 288.00 0.00 4.39 4.00
719.00 288.00 0.00 4.39 4.00
720.00 288.00 0.00 4.39 4.00
721.00 288.00 0.00 4.39 4.00
722.00 288.00 0.00 4.39 4.00
723.00 288.00 0.00 4.39 4.00
724.00 288.00 0.00 4.39 4.00
725.00 288.00 0.00 4.39 4.00
726.00 288.00 0.00 4.39 4.00
727.00 288.00 0.00 4.39 4.00
728.00 288.00 0.00 4.39 4.00
729.00 288.00 0.00 4.39 4.00
730.00 288.00 0.00 4.39 4.00
731.00 288.00 0.00 4.39 4.00
732.00 288.00 0.00 4.39 4.00
733.00 288.00 0.00 4.39 4.00
734.00 288.00 0.00 4.39 4.00
735.00 288.00 0.00 4.39 4.00
736.00 288.00 0.00 4.39 4.00
737.00 288.00 0.00 4.39 4.00
738.00 288.00 0.00 4.39 4.00
739.00 288.00 0.00 4.39 4.00
740.00 288.00 0.00 4.39 4.00
741.00 288.00 0.00 4.39 4.00
742.00 288.00 0.00 4.39 4.00
743.00 288.00 0.00 4.39 4.00
744.00 288.00 0.00 4.39 4.00
745.00 288.00 0.00 4.39 4.00
746.00 288.00 0.00 4.39 4.00
747.00 288.00 0.00 4.39 4.00
748.00 288.00 0.00 4.39 4.00
749.00 288.00 0.00 4.39 4.00
750.00 288.00 0.00 4.39 4.00
751.00 288.00 0.00 4.39 4.00
752.00 288.00 0.00 4.39 4.00
753.00 288.00 0.00 4.39 4.00
754.00 288.00 0.00 4.39 4.00
755.00 288.00 0.00 4.39 4.00
756.00 288.00 0.00 4.39 4.00
757.00 288.00 0.00 4.39 4.00
758.00 288.00 0.00 4.39 4.00
759.00 288.00 0.00 4.39 4.00
760.00 288.00 0.00 4.39 4.00
761.00 288.00 0.00 4.39 4.00
762.00 288.00 0.00 4.39 4.00
763.00 288.00 0.00 4.39 4.00
764.00 288.00 0.00 4.39 4.00
765.00 288.00 0.00 4.39 4.00
766.00 288.00 0.00 4.39 4.00
767.00 288.00 0.00 4.39 4.00
768.00 288.00 0.00 4.39 4.00
769.00 288.00 0.00 4.39 4.00
770.00 288.00 0.00 4.39 4.00
771.00 288.00 0.00 4.39 4.00
772.00 288.00 0.00 4.39 4.00
773.00 288.00 0.00 4.39 4.00
774.00 288.00 0.00 4.39 4.00
775.00 288.00 0.00 4.39 4.00
776.00 288.00 0.00 4.39 4.00
777.00 288.00 0.00 4.39 4.00
778.00 288.00 0.00 4.39 4.00
779.00 288.00 0.00 4.39 4.00
780.00 288.00 0.00 4.39 4.00
781.00 288.00 0.00 4.39 4.00
782.00 288.00 0.00 4.39 4.00
783.00 288.00 0.00 4.39 4.00
784.00 288.00 0.00 4.39 4.00
785.00 288.00 0.00 4.39 4.00
786.00 288.00 0.00 4.39 4.00
787.00 288.00 0.00 4.39 4.00
788.00 288.00 0.00 4.39 4.00
789.00 288.00 0.00 4.39 4.00
790.00 288.00 0.00 4.39 4.00
791.00 288.00 0.00 4.39 4.00
792.00 288.00 0.00 4.39 4.00
793.00 288.00 0.00 4.39 4.00
794.00 288.00 0.00 4.39 4.00
795.00 288.00 0.00 4.39 4.00
796.00 288.00 0.00 4.39 4.00
797.00 288.00 0.00 4.39 4.00
798.00 288.00 0.00 4.39 4.00
799.00 288.00 0.00 4.39 4.00
800.00 288.00 0.00 4.39 4.00
801.00 288.00 0.00 4.39 4.00
802.00 288.00 0.00 4.39 4.00
803.00 288.00 0.00 4.39 4.00
804.00 288.00 0.00 4.39 4.00
805.00 288.00 0.00 4.39 4.00
806.00 288.00 0.00 4.39 4.00
807.00 288.00 0.00 4.39 4.00
808.00 288.00 0.00 4.39 4.00
809.00 288.00 0.00 4.39 4.00
810.00 288.00 0.00 4.39 4.00
811.00 288.00 0.00 4.39 4.00
812.00 288.00 0.00 4.39 4.00
813.00 288.00 0.00 4.39 4.00
814.00 288.00 0.00 4.39 4.00
815.00 288.00 0.00 4.39 4.00
816.00 288.00 0.00 4.39 4.00
817.00 288.00 0.00 4.39 4.00
818.00 288.00 0.00 4.39 4.00
819.00 288.00 0.00 4.39 4.00
820.00 288.00 0.00 4.39 4.00
821.00 288.00 0.00 4.39 4.00
822.00 288.00 0.00 4.39 4.00
823.00 288.00 0.00 4.39 4.00
824.00 288.00 0.00 4.39 4.00
825.00 288.00 0.00 4.39 4.00
826.00 288.00 0.00 4.39 4.00
827.00 288.00 0.00 4.39 4.00
828.00 288.00 0.00 4.39 4.00
829.00 288.00 0.00 4.39 4.00
830.00 288.00 0.00 4.39 4.00
831.00 288.00 0.00 4.39 4.00
