1000.00 288.00 00.00
0.00 288.00 0.00 2.03 -0.76
1.00 288.00 0.00 2.03 -0.76
2.00 288.00 0.00 2.03 -0.76
3.00 288.00 0.00 2.03 -0.76
4.00 288.00 0.00 2.03 -0.76
5.00 288.00 0.00 2.03 -0.76
6.00 288.00 0.00 2.03 -0.76
7.00 288.00 0.00 2.03 -0.76
8.00 288.00 0.00 2.03 -0.76
9.00 288.00 0.00 2.03 -0.76
10.00 288.00 0.00 2.03 -0.76
11.00 288.00 0.00 2.03 -0.76
12.00 288.00 0.00 2.03 -0.76
13.00 288.00 0.00 2.03 -0.76
14.00 288.00 0.00 2.03 -0.76
15.00 288.00 0.00 2.03 -0.76
16.00 288.00 0.00 2.03 -0.76
17.00 288.00 0.00 2.03 -0.76
18.00 288.00 0.00 2.03 -0.76
19.00 288.00 0.00 2.03 -0.76
20.00 288.00 0.00 2.03 -0.76
21.00 288.00 0.00 2.03 -0.76
22.00 288.00 0.00 2.03 -0.76
23.00 288.00 0.00 2.03 -0.76
24.00 288.00 0.00 2.03 -0.76
25.00 288.00 0.00 2.03 -0.76
26.00 288.00 0.00 2.03 -0.76
27.00 288.00 0.00 2.03 -0.76
28.00 288.00 0.00 2.03 -0.76
29.00 288.00 0.00 2.03 -0.76
30.00 288.00 0.00 2.03 -0.76
31.00 288.00 0.00 2.03 -0.76
32.00 288.00 0.00 2.03 -0.76
33.00 288.00 0.00 2.03 -0.76
34.00 288.00 0.00 2.03 -0.76
35.00 288.00 0.00 2.03 -0.76
36.00 288.00 0.00 2.03 -0.76
37.00 288.00 0.00 2.03 -0.76
38.00 288.00 0.00 2.03 -0.76
39.00 288.00 0.00 2.03 -0.76
40.00 288.00 0.00 2.03 -0.76
41.00 288.00 0.00 2.03 -0.76
42.00 288.00 0.00 2.03 -0.76
43.00 288.00 0.00 2.03 -0.76
44.00 288.00 0.00 2.03 -0.76
45.00 288.00 0.00 2.03 -0.76
46.00 288.00 0.00 2.03 -0.76
47.00 288.00 0.00 2.03 -0.76
48.00 288.00 0.00 2.03 -0.76
49.00 288.00 0.00 2.03 -0.76
50.00 288.00 0.00 2.04 -0.76
51.00 288.00 0.00 2.04 -0.76
52.00 288.00 0.00 2.04 -0.76
53.00 288.00 0.00 2.04 -0.76
54.00 288.00 0.00 2.04 -0.76
55.00 288.00 0.00 2.04 -0.76
56.00 288.00 0.00 2.04 -0.76
57.00 288.00 0.00 2.05 -0.75
58.00 288.00 0.00 2.05 -0.75
59.00 288.00 0.00 2.05 -0.75
60.00 288.00 0.00 2.05 -0.75
61.00 288.00 0.00 2.05 -0.75
62.00 288.00 0.00 2.06 -0.75
63.00 288.00 0.00 2.06 -0.75
64.00 288.00 0.00 2.06 -0.75
65.00 288.00 0.00 2.06 -0.75
66.00 288.00 0.00 2.07 -0.75
67.00 288.00 0.00 2.07 -0.75
68.00 288.00 0.00 2.07 -0.75
69.00 288.00 0.00 2.08 -0.75
70.00 288.00 0.00 2.08 -0.75
71.00 288.00 0.00 2.08 -0.75
72.00 288.00 0.00 2.09 -0.75
73.00 288.00 0.00 2.09 -0.75
74.00 288.00 0.00 2.09 -0.75
75.00 288.00 0.00 2.10 -0.75
76.00 288.00 0.00 2.10 -0.75
77.00 288.00 0.00 2.11 -0.75
78.00 288.00 0.00 2.11 -0.75
79.00 288.00 0.00 2.11 -0.74
80.00 288.00 0.00 2.12 -0.74
81.00 288.00 0.00 2.12 -0.74
82.00 288.00 0.00 2.13 -0.74
83.00 288.00 0.00 2.13 -0.74
84.00 288.00 0.00 2.14 -0.74
85.00 288.00 0.00 2.14 -0.74
86.00 288.00 0.00 2.15 -0.74
87.00 288.00 0.00 2.15 -0.74
88.00 288.00 0.00 2.16 -0.74
89.00 288.00 0.00 2.16 -0.74
90.00 288.00 0.00 2.17 -0.74
91.00 288.00 0.00 2.17 -0.74
92.00 288.00 0.00 2.18 -0.73
93.00 288.00 0.00 2.19 -0.73
94.00 288.00 0.00 2.19 -0.73
95.00 288.00 0.00 2.20 -0.73
96.00 288.00 0.00 2.20 -0.73
97.00 288.00 0.00 2.21 -0.73
98.00 288.00 0.00 2.22 -0.73
99.00 288.00 0.00 2.22 -0.73
100.00 288.00 0.00 2.23 -0.73
101.00 288.00 0.00 2.24 -0.73
102.00 288.00 0.00 2.24 -0.72
103.00 288.00 0.00 2.25 -0.72
104.00 288.00 0.00 2.26 -0.72
105.00 288.00 0.00 2.26 -0.72
106.00 288.00 0.00 2.27 -0.72
107.00 288.00 0.00 2.28 -0.72
108.00 288.00 0.00 2.29 -0.72
109.00 288.00 0.00 2.29 -0.72
110.00 288.00 0.00 2.30 -0.72
111.00 288.00 0.00 2.31 -0.71
112.00 288.00 0.00 2.32 -0.71
113.00 288.00 0.00 2.33 -0.71
114.00 288.00 0.00 2.33 -0.71
115.00 288.00 0.00 2.34 -0.71
116.00 288.00 0.00 2.35 -0.71
117.00 288.00 0.00 2.36 -0.71
118.00 288.00 0.00 2.37 -0.71
119.00 288.00 0.00 2.38 -0.70
120.00 288.00 0.00 2.39 -0.70
121.00 288.00 0.00 2.39 -0.70
122.00 288.00 0.00 2.40 -0.70
123.00 288.00 0.00 2.41 -0.70
124.00 288.00 0.00 2.42 -0.70
125.00 288.00 0.00 2.43 -0.70
126.00 288.00 0.00 2.44 -0.69
127.00 288.00 0.00 2.45 -0.69
128.00 288.00 0.00 2.46 -0.69
129.00 288.00 0.00 2.47 -0.69
130.00 288.00 0.00 2.48 -0.69
131.00 288.00 0.00 2.49 -0.69
132.00 288.00 0.00 2.50 -0.69
133.00 288.00 0.00 2.51 -0.68
134.00 288.00 0.00 2.52 -0.68
135.00 288.00 0.00 2.53 -0.68
136.00 288.00 0.00 2.54 -0.68
137.00 288.00 0.00 2.55 -0.68
138.00 288.00 0.00 2.56 -0.68
139.00 288.00 0.00 2.57 -0.67
140.00 288.00 0.00 2.59 -0.67
141.00 288.00 0.00 2.60 -0.67
142.00 288.00 0.00 2.61 -0.67
143.00 288.00 0.00 2.62 -0.67
144.00 288.00 0.00 2.63 -0.67
145.00 288.00 0.00 2.64 -0.66
146.00 288.00 0.00 2.65 -0.66
147.00 288.00 0.00 2.67 -0.66
148.00 288.00 0.00 2.68 -0.66
149.00 288.00 0.00 2.69 -0.66
150.00 288.00 0.00 2.70 -0.65
151.00 288.00 0.00 2.71 -0.65
152.00 288.00 0.00 2.73 -0.65
153.00 288.00 0.00 2.74 -0.65
154.00 288.00 0.00 2.75 -0.65
155.00 288.00 0.00 2.76 -0.64
156.00 288.00 0.00 2.78 -0.64
157.00 288.00 0.00 2.79 -0.64
158.00 288.00 0.00 2.80 -0.64
159.00 288.00 0.00 2.82 -0.64
160.00 288.00 0.00 2.83 -0.63
161.00 288.00 0.00 2.84 -0.63
162.00 288.00 0.00 2.86 -0.63
163.00 288.00 0.00 2.87 -0.63
164.00 288.00 0.00 2.88 -0.63
165.00 288.00 0.00 2.90 -0.62
166.00 288.00 0.00 2.91 -0.62
167.00 288.00 0.00 2.93 -0.62
168.00 288.00 0.00 2.94 -0.62
169.00 288.00 0.00 2.95 -0.62
170.00 288.00 0.00 2.97 -0.61
171.00 288.00 0.00 2.98 -0.61
172.00 288.00 0.00 3.00 -0.61
173.00 288.00 0.00 3.01 -0.61
174.00 288.00 0.00 3.03 -0.60
175.00 288.00 0.00 3.04 -0.60
176.00 288.00 0.00 3.06 -0.60
177.00 288.00 0.00 3.07 -0.60
178.00 288.00 0.00 3.09 -0.60
179.00 288.00 0.00 3.10 -0.59
180.00 288.00 0.00 3.12 -0.59
181.00 288.00 0.00 3.13 -0.59
182.00 288.00 0.00 3.15 -0.59
183.00 288.00 0.00 3.17 -0.58
184.00 288.00 0.00 3.18 -0.58
185.00 288.00 0.00 3.20 -0.58
186.00 288.00 0.00 3.21 -0.58
187.00 288.00 0.00 3.23 -0.57
188.00 288.00 0.00 3.25 -0.57
189.00 288.00 0.00 3.26 -0.57
190.00 288.00 0.00 3.28 -0.57
191.00 288.00 0.00 3.30 -0.56
192.00 288.00 0.00 3.31 -0.56
193.00 288.00 0.00 3.33 -0.56
194.00 288.00 0.00 3.35 -0.56
195.00 288.00 0.00 3.36 -0.55
196.00 288.00 0.00 3.38 -0.55
197.00 288.00 0.00 3.40 -0.55
198.00 288.00 0.00 3.42 -0.55
199.00 288.00 0.00 3.43 -0.54
200.00 288.00 0.00 3.45 -0.54
201.00 288.00 0.00 3.47 -0.54
202.00 288.00 0.00 3.49 -0.53
203.00 288.00 0.00 3.51 -0.53
204.00 288.00 0.00 3.52 -0.53
205.00 288.00 0.00 3.54 -0.53
206.00 288.00 0.00 3.56 -0.52
207.00 288.00 0.00 3.58 -0.52
208.00 288.00 0.00 3.60 -0.52
209.00 288.00 0.00 3.62 -0.51
210.00 288.00 0.00 3.64 -0.51
211.00 288.00 0.00 3.65 -0.51
212.00 288.00 0.00 3.67 -0.51
213.00 288.00 0.00 3.69 -0.50
214.00 288.00 0.00 3.71 -0.50
215.00 288.00 0.00 3.73 -0.50
216.00 288.00 0.00 3.75 -0.49
217.00 288.00 0.00 3.77 -0.49
218.00 288.00 0.00 3.79 -0.49
219.00 288.00 0.00 3.81 -0.49
220.00 288.00 0.00 3.83 -0.48
221.00 288.00 0.00 3.85 -0.48
222.00 288.00 0.00 3.87 -0.48
223.00 288.00 0.00 3.89 -0.47
224.00 288.00 0.00 3.91 -0.47
225.00 288.00 0.00 3.93 -0.47
226.00 288.00 0.00 3.95 -0.46
227.00 288.00 0.00 3.97 -0.46
228.00 288.00 0.00 3.99 -0.46
229.00 288.00 0.00 4.01 -0.45
230.00 288.00 0.00 4.03 -0.45
231.00 288.00 0.00 4.05 -0.45
232.00 288.00 0.00 4.07 -0.45
233.00 288.00 0.00 4.09 -0.44
234.00 288.00 0.00 4.11 -0.44
235.00 288.00 0.00 4.13 -0.44
236.00 288.00 0.00 4.15 -0.43
237.00 288.00 0.00 4.17 -0.43
238.00 288.00 0.00 4.19 -0.43
239.00 288.00 0.00 4.21 -0.42
240.00 288.00 0.00 4.23 -0.42
241.00 288.00 0.00 4.25 -0.42
242.00 288.00 0.00 4.27 -0.42
243.00 288.00 0.00 4.29 -0.41
244.00 288.00 0.00 4.31 -0.41
245.00 288.00 0.00 4.33 -0.41
246.00 288.00 0.00 4.35 -0.40
247.00 288.00 0.00 4.37 -0.40
248.00 288.00 0.00 4.39 -0.40
249.00 288.00 0.00 4.41 -0.39
250.00 288.00 0.00 4.43 -0.39
251.00 288.00 0.00 4.45 -0.39
252.00 288.00 0.00 4.47 -0.38
253.00 288.00 0.00 4.49 -0.38
254.00 288.00 0.00 4.51 -0.38
255.00 288.00 0.00 4.53 -0.38
256.00 288.00 0.00 4.55 -0.37
257.00 288.00 0.00 4.57 -0.37
258.00 288.00 0.00 4.59 -0.37
259.00 288.00 0.00 4.61 -0.36
260.00 288.00 0.00 4.63 -0.36
261.00 288.00 0.00 4.65 -0.36
262.00 288.00 0.00 4.67 -0.35
263.00 288.00 0.00 4.69 -0.35
264.00 288.00 0.00 4.71 -0.35
265.00 288.00 0.00 4.73 -0.34
266.00 288.00 0.00 4.75 -0.34
267.00 288.00 0.00 4.77 -0.34
268.00 288.00 0.00 4.79 -0.34
269.00 288.00 0.00 4.81 -0.33
270.00 288.00 0.00 4.83 -0.33
271.00 288.00 0.00 4.85 -0.33
272.00 288.00 0.00 4.87 -0.32
273.00 288.00 0.00 4.89 -0.32
274.00 288.00 0.00 4.91 -0.32
275.00 288.00 0.00 4.93 -0.31
276.00 288.00 0.00 4.95 -0.31
277.00 288.00 0.00 4.97 -0.31
278.00 288.00 0.00 4.99 -0.31
279.00 288.00 0.00 5.01 -0.30
280.00 288.00 0.00 5.03 -0.30
281.00 288.00 0.00 5.05 -0.30
282.00 288.00 0.00 5.07 -0.29
283.00 288.00 0.00 5.09 -0.29
284.00 288.00 0.00 5.11 -0.29
285.00 288.00 0.00 5.13 -0.28
286.00 288.00 0.00 5.15 -0.28
287.00 288.00 0.00 5.17 -0.28
288.00 288.00 0.00 5.19 -0.27
289.00 288.00 0.00 5.21 -0.27
290.00 288.00 0.00 5.23 -0.27
291.00 288.00 0.00 5.25 -0.27
292.00 288.00 0.00 5.27 -0.26
293.00 288.00 0.00 5.29 -0.26
294.00 288.00 0.00 5.31 -0.26
295.00 288.00 0.00 5.33 -0.25
296.00 288.00 0.00 5.35 -0.25
297.00 288.00 0.00 5.37 -0.25
298.00 288.00 0.00 5.39 -0.24
299.00 288.00 0.00 5.41 -0.24
300.00 288.00 0.00 5.43 -0.24
301.00 288.00 0.00 5.45 -0.24
302.00 288.00 0.00 5.47 -0.23
303.00 288.00 0.00 5.49 -0.23
304.00 288.00 0.00 5.51 -0.23
305.00 288.00 0.00 5.53 -0.22
306.00 288.00 0.00 5.55 -0.22
307.00 288.00 0.00 5.57 -0.22
308.00 288.00 0.00 5.59 -0.21
309.00 288.00 0.00 5.61 -0.21
310.00 288.00 0.00 5.63 -0.21
311.00 288.00 0.00 5.65 -0.20
312.00 288.00 0.00 5.67 -0.20
313.00 288.00 0.00 5.69 -0.20
314.00 288.00 0.00 5.71 -0.20
315.00 288.00 0.00 5.73 -0.19
316.00 288.00 0.00 5.75 -0.19
317.00 288.00 0.00 5.77 -0.19
318.00 288.00 0.00 5.79 -0.18
319.00 288.00 0.00 5.81 -0.18
320.00 288.00 0.00 5.83 -0.18
321.00 288.00 0.00 5.85 -0.17
322.00 288.00 0.00 5.87 -0.17
323.00 288.00 0.00 5.89 -0.17
324.00 288.00 0.00 5.91 -0.16
325.00 288.00 0.00 5.93 -0.16
326.00 288.00 0.00 5.95 -0.16
327.00 288.00 0.00 5.97 -0.16
328.00 288.00 0.00 5.99 -0.15
329.00 288.00 0.00 6.01 -0.15
330.00 288.00 0.00 6.03 -0.15
331.00 288.00 0.00 6.05 -0.14
332.00 288.00 0.00 6.07 -0.14
333.00 288.00 0.00 6.09 -0.14
334.00 288.00 0.00 6.11 -0.13
335.00 288.00 0.00 6.13 -0.13
336.00 288.00 0.00 6.15 -0.13
337.00 288.00 0.00 6.17 -0.13
338.00 288.00 0.00 6.19 -0.12
339.00 288.00 0.00 6.21 -0.12
340.00 288.00 0.00 6.23 -0.12
341.00 288.00 0.00 6.25 -0.11
342.00 288.00 0.00 6.27 -0.11
343.00 288.00 0.00 6.29 -0.11
344.00 288.00 0.00 6.31 -0.10
345.00 288.00 0.00 6.33 -0.10
346.00 288.00 0.00 6.35 -0.10
347.00 288.00 0.00 6.37 -0.09
348.00 288.00 0.00 6.39 -0.09
349.00 288.00 0.00 6.41 -0.09
350.00 288.00 0.00 6.43 -0.09
351.00 288.00 0.00 6.45 -0.08
352.00 288.00 0.00 6.47 -0.08
353.00 288.00 0.00 6.49 -0.08
354.00 288.00 0.00 6.51 -0.07
355.00 288.00 0.00 6.53 -0.07
356.00 288.00 0.00 6.55 -0.07
357.00 288.00 0.00 6.57 -0.06
358.00 288.00 0.00 6.59 -0.06
359.00 288.00 0.00 6.61 -0.06
360.00 288.00 0.00 6.63 -0.05
361.00 288.00 0.00 6.65 -0.05
362.00 288.00 0.00 6.67 -0.05
363.00 288.00 0.00 6.69 -0.05
364.00 288.00 0.00 6.71 -0.04
365.00 288.00 0.00 6.73 -0.04
366.00 288.00 0.00 6.75 -0.04
367.00 288.00 0.00 6.77 -0.03
368.00 288.00 0.00 6.79 -0.03
369.00 288.00 0.00 6.81 -0.03
370.00 288.00 0.00 6.83 -0.02
371.00 288.00 0.00 6.85 -0.02
372.00 288.00 0.00 6.87 -0.02
373.00 288.00 0.00 6.89 -0.02
374.00 288.00 0.00 6.91 -0.01
375.00 288.00 0.00 6.93 -0.01
376.00 288.00 0.00 6.95 -0.01
377.00 288.00 0.00 6.97 -0.00
378.00 288.00 0.00 6.99 0.00
379.00 288.00 0.00 7.01 0.00
380.00 288.00 0.00 7.03 0.01
381.00 288.00 0.00 7.05 0.01
382.00 288.00 0.00 7.07 0.01
383.00 288.00 0.00 7.09 0.02
384.00 288.00 0.00 7.11 0.02
385.00 288.00 0.00 7.13 0.02
386.00 288.00 0.00 7.15 0.02
387.00 288.00 0.00 7.17 0.03
388.00 288.00 0.00 7.19 0.03
389.00 288.00 0.00 7.21 0.03
390.00 288.00 0.00 7.23 0.04
391.00 288.00 0.00 7.25 0.04
392.00 288.00 0.00 7.27 0.04
393.00 288.00 0.00 7.29 0.05
394.00 288.00 0.00 7.31 0.05
395.00 288.00 0.00 7.33 0.05
396.00 288.00 0.00 7.35 0.05
397.00 288.00 0.00 7.37 0.06
398.00 288.00 0.00 7.39 0.06
399.00 288.00 0.00 7.41 0.06
400.00 288.00 0.00 7.43 0.07
401.00 288.00 0.00 7.45 0.07
402.00 288.00 0.00 7.47 0.07
403.00 288.00 0.00 7.49 0.08
404.00 288.00 0.00 7.51 0.08
405.00 288.00 0.00 7.53 0.08
406.00 288.00 0.00 7.55 0.09
407.00 288.00 0.00 7.57 0.09
408.00 288.00 0.00 7.59 0.09
409.00 288.00 0.00 7.61 0.09
410.00 288.00 0.00 7.63 0.10
411.00 288.00 0.00 7.65 0.10
412.00 288.00 0.00 7.67 0.10
413.00 288.00 0.00 7.69 0.11
414.00 288.00 0.00 7.71 0.11
415.00 288.00 0.00 7.73 0.11
416.00 288.00 0.00 7.75 0.12
417.00 288.00 0.00 7.77 0.12
418.00 288.00 0.00 7.79 0.12
419.00 288.00 0.00 7.81 0.13
420.00 288.00 0.00 7.83 0.13
421.00 288.00 0.00 7.85 0.13
422.00 288.00 0.00 7.87 0.13
423.00 288.00 0.00 7.89 0.14
424.00 288.00 0.00 7.91 0.14
425.00 288.00 0.00 7.93 0.14
426.00 288.00 0.00 7.95 0.15
427.00 288.00 0.00 7.97 0.15
428.00 288.00 0.00 7.99 0.15
429.00 288.00 0.00 8.01 0.16
430.00 288.00 0.00 8.03 0.16
431.00 288.00 0.00 8.05 0.16
432.00 288.00 0.00 8.07 0.16
433.00 288.00 0.00 8.09 0.17
434.00 288.00 0.00 8.11 0.17
435.00 288.00 0.00 8.13 0.17
436.00 288.00 0.00 8.15 0.18
437.00 288.00 0.00 8.17 0.18
438.00 288.00 0.00 8.19 0.18
439.00 288.00 0.00 8.21 0.19
440.00 288.00 0.00 8.23 0.19
441.00 288.00 0.00 8.25 0.19
442.00 288.00 0.00 8.27 0.20
443.00 288.00 0.00 8.29 0.20
444.00 288.00 0.00 8.31 0.20
445.00 288.00 0.00 8.33 0.20
446.00 288.00 0.00 8.35 0.21
447.00 288.00 0.00 8.37 0.21
448.00 288.00 0.00 8.39 0.21
449.00 288.00 0.00 8.41 0.22
450.00 288.00 0.00 8.43 0.22
451.00 288.00 0.00 8.45 0.22
452.00 288.00 0.00 8.47 0.23
453.00 288.00 0.00 8.49 0.23
454.00 288.00 0.00 8.51 0.23
455.00 288.00 0.00 8.53 0.24
456.00 288.00 0.00 8.55 0.24
457.00 288.00 0.00 8.57 0.24
458.00 288.00 0.00 8.59 0.24
459.00 288.00 0.00 8.61 0.25
460.00 288.00 0.00 8.63 0.25
461.00 288.00 0.00 8.65 0.25
462.00 288.00 0.00 8.67 0.26
463.00 288.00 0.00 8.69 0.26
464.00 288.00 0.00 8.71 0.26
465.00 288.00 0.00 8.73 0.27
466.00 288.00 0.00 8.75 0.27
467.00 288.00 0.00 8.77 0.27
468.00 288.00 0.00 8.79 0.27
469.00 288.00 0.00 8.81 0.28
470.00 288.00 0.00 8.83 0.28
471.00 288.00 0.00 8.85 0.28
472.00 288.00 0.00 8.87 0.29
473.00 288.00 0.00 8.89 0.29
474.00 288.00 0.00 8.91 0.29
475.00 288.00 0.00 8.93 0.30
476.00 288.00 0.00 8.95 0.30
477.00 288.00 0.00 8.97 0.30
478.00 288.00 0.00 8.99 0.31
479.00 288.00 0.00 9.01 0.31
480.00 288.00 0.00 9.03 0.31
481.00 288.00 0.00 9.05 0.31
482.00 288.00 0.00 9.07 0.32
483.00 288.00 0.00 9.09 0.32
484.00 288.00 0.00 9.11 0.32
485.00 288.00 0.00 9.13 0.33
486.00 288.00 0.00 9.15 0.33
487.00 288.00 0.00 9.17 0.33
488.00 288.00 0.00 9.19 0.34
489.00 288.00 0.00 9.21 0.34
490.00 288.00 0.00 9.23 0.34
491.00 288.00 0.00 9.25 0.34
492.00 288.00 0.00 9.27 0.35
493.00 288.00 0.00 9.29 0.35
494.00 288.00 0.00 9.31 0.35
495.00 288.00 0.00 9.33 0.36
496.00 288.00 0.00 9.35 0.36
497.00 288.00 0.00 9.37 0.36
498.00 288.00 0.00 9.39 0.37
499.00 288.00 0.00 9.41 0.37
500.00 288.00 0.00 9.43 0.37
501.00 288.00 0.00 9.45 0.38
502.00 288.00 0.00 9.47 0.38
503.00 288.00 0.00 9.49 0.38
504.00 288.00 0.00 9.51 0.38
505.00 288.00 0.00 9.53 0.39
506.00 288.00 0.00 9.55 0.39
507.00 288.00 0.00 9.57 0.39
508.00 288.00 0.00 9.59 0.40
509.00 288.00 0.00 9.61 0.40
510.00 288.00 0.00 9.63 0.40
511.00 288.00 0.00 9.65 0.41
512.00 288.00 0.00 9.67 0.41
513.00 288.00 0.00 9.69 0.41
514.00 288.00 0.00 9.71 0.42
515.00 288.00 0.00 9.73 0.42
516.00 288.00 0.00 9.75 0.42
517.00 288.00 0.00 9.77 0.42
518.00 288.00 0.00 9.79 0.43
519.00 288.00 0.00 9.81 0.43
520.00 288.00 0.00 9.83 0.43
521.00 288.00 0.00 9.85 0.44
522.00 288.00 0.00 9.87 0.44
523.00 288.00 0.00 9.89 0.44
524.00 288.00 0.00 9.91 0.45
525.00 288.00 0.00 9.93 0.45
526.00 288.00 0.00 9.95 0.45
527.00 288.00 0.00 9.97 0.45
528.00 288.00 0.00 9.99 0.46
529.00 288.00 0.00 10.01 0.46
530.00 288.00 0.00 10.03 0.46
531.00 288.00 0.00 10.05 0.47
532.00 288.00 0.00 10.07 0.47
533.00 288.00 0.00 10.09 0.47
534.00 288.00 0.00 10.11 0.48
535.00 288.00 0.00 10.13 0.48
536.00 288.00 0.00 10.15 0.48
537.00 288.00 0.00 10.17 0.49
538.00 288.00 0.00 10.19 0.49
539.00 288.00 0.00 10.21 0.49
540.00 288.00 0.00 10.23 0.49
541.00 288.00 0.00 10.25 0.50
542.00 288.00 0.00 10.27 0.50
543.00 288.00 0.00 10.29 0.50
544.00 288.00 0.00 10.31 0.51
545.00 288.00 0.00 10.33 0.51
546.00 288.00 0.00 10.35 0.51
547.00 288.00 0.00 10.36 0.51
548.00 288.00 0.00 10.38 0.52
549.00 288.00 0.00 10.40 0.52
550.00 288.00 0.00 10.42 0.52
551.00 288.00 0.00 10.44 0.53
552.00 288.00 0.00 10.46 0.53
553.00 288.00 0.00 10.48 0.53
554.00 288.00 0.00 10.49 0.53
555.00 288.00 0.00 10.51 0.54
556.00 288.00 0.00 10.53 0.54
557.00 288.00 0.00 10.55 0.54
558.00 288.00 0.00 10.57 0.55
559.00 288.00 0.00 10.58 0.55
560.00 288.00 0.00 10.60 0.55
561.00 288.00 0.00 10.62 0.55
562.00 288.00 0.00 10.64 0.56
563.00 288.00 0.00 10.65 0.56
564.00 288.00 0.00 10.67 0.56
565.00 288.00 0.00 10.69 0.56
566.00 288.00 0.00 10.70 0.57
567.00 288.00 0.00 10.72 0.57
568.00 288.00 0.00 10.74 0.57
569.00 288.00 0.00 10.75 0.57
570.00 288.00 0.00 10.77 0.58
571.00 288.00 0.00 10.79 0.58
572.00 288.00 0.00 10.80 0.58
573.00 288.00 0.00 10.82 0.58
574.00 288.00 0.00 10.83 0.59
575.00 288.00 0.00 10.85 0.59
576.00 288.00 0.00 10.87 0.59
577.00 288.00 0.00 10.88 0.59
578.00 288.00 0.00 10.90 0.60
579.00 288.00 0.00 10.91 0.60
580.00 288.00 0.00 10.93 0.60
581.00 288.00 0.00 10.94 0.60
582.00 288.00 0.00 10.96 0.60
583.00 288.00 0.00 10.97 0.61
584.00 288.00 0.00 10.99 0.61
585.00 288.00 0.00 11.00 0.61
586.00 288.00 0.00 11.02 0.61
587.00 288.00 0.00 11.03 0.62
588.00 288.00 0.00 11.05 0.62
589.00 288.00 0.00 11.06 0.62
590.00 288.00 0.00 11.07 0.62
591.00 288.00 0.00 11.09 0.62
592.00 288.00 0.00 11.10 0.63
593.00 288.00 0.00 11.12 0.63
594.00 288.00 0.00 11.13 0.63
595.00 288.00 0.00 11.14 0.63
596.00 288.00 0.00 11.16 0.63
597.00 288.00 0.00 11.17 0.64
598.00 288.00 0.00 11.18 0.64
599.00 288.00 0.00 11.20 0.64
600.00 288.00 0.00 11.21 0.64
601.00 288.00 0.00 11.22 0.64
602.00 288.00 0.00 11.24 0.65
603.00 288.00 0.00 11.25 0.65
604.00 288.00 0.00 11.26 0.65
605.00 288.00 0.00 11.27 0.65
606.00 288.00 0.00 11.29 0.65
607.00 288.00 0.00 11.30 0.66
608.00 288.00 0.00 11.31 0.66
609.00 288.00 0.00 11.32 0.66
610.00 288.00 0.00 11.33 0.66
611.00 288.00 0.00 11.35 0.66
612.00 288.00 0.00 11.36 0.67
613.00 288.00 0.00 11.37 0.67
614.00 288.00 0.00 11.38 0.67
615.00 288.00 0.00 11.39 0.67
616.00 288.00 0.00 11.40 0.67
617.00 288.00 0.00 11.41 0.67
618.00 288.00 0.00 11.43 0.68
619.00 288.00 0.00 11.44 0.68
620.00 288.00 0.00 11.45 0.68
621.00 288.00 0.00 11.46 0.68
622.00 288.00 0.00 11.47 0.68
623.00 288.00 0.00 11.48 0.68
624.00 288.00 0.00 11.49 0.69
625.00 288.00 0.00 11.50 0.69
626.00 288.00 0.00 11.51 0.69
627.00 288.00 0.00 11.52 0.69
628.00 288.00 0.00 11.53 0.69
629.00 288.00 0.00 11.54 0.69
630.00 288.00 0.00 11.55 0.69
631.00 288.00 0.00 11.56 0.70
632.00 288.00 0.00 11.57 0.70
633.00 288.00 0.00 11.58 0.70
634.00 288.00 0.00 11.59 0.70
635.00 288.00 0.00 11.60 0.70
636.00 288.00 0.00 11.61 0.70
637.00 288.00 0.00 11.61 0.70
638.00 288.00 0.00 11.62 0.71
639.00 288.00 0.00 11.63 0.71
640.00 288.00 0.00 11.64 0.71
641.00 288.00 0.00 11.65 0.71
642.00 288.00 0.00 11.66 0.71
643.00 288.00 0.00 11.67 0.71
644.00 288.00 0.00 11.67 0.71
645.00 288.00 0.00 11.68 0.71
646.00 288.00 0.00 11.69 0.72
647.00 288.00 0.00 11.70 0.72
648.00 288.00 0.00 11.71 0.72
649.00 288.00 0.00 11.71 0.72
650.00 288.00 0.00 11.72 0.72
651.00 288.00 0.00 11.73 0.72
652.00 288.00 0.00 11.74 0.72
653.00 288.00 0.00 11.74 0.72
654.00 288.00 0.00 11.75 0.72
655.00 288.00 0.00 11.76 0.73
656.00 288.00 0.00 11.76 0.73
657.00 288.00 0.00 11.77 0.73
658.00 288.00 0.00 11.78 0.73
659.00 288.00 0.00 11.78 0.73
660.00 288.00 0.00 11.79 0.73
661.00 288.00 0.00 11.80 0.73
662.00 288.00 0.00 11.80 0.73
663.00 288.00 0.00 11.81 0.73
664.00 288.00 0.00 11.81 0.73
665.00 288.00 0.00 11.82 0.74
666.00 288.00 0.00 11.83 0.74
667.00 288.00 0.00 11.83 0.74
668.00 288.00 0.00 11.84 0.74
669.00 288.00 0.00 11.84 0.74
670.00 288.00 0.00 11.85 0.74
671.00 288.00 0.00 11.85 0.74
672.00 288.00 0.00 11.86 0.74
673.00 288.00 0.00 11.86 0.74
674.00 288.00 0.00 11.87 0.74
675.00 288.00 0.00 11.87 0.74
676.00 288.00 0.00 11.88 0.74
677.00 288.00 0.00 11.88 0.74
678.00 288.00 0.00 11.89 0.75
679.00 288.00 0.00 11.89 0.75
680.00 288.00 0.00 11.89 0.75
681.00 288.00 0.00 11.90 0.75
682.00 288.00 0.00 11.90 0.75
683.00 288.00 0.00 11.91 0.75
684.00 288.00 0.00 11.91 0.75
685.00 288.00 0.00 11.91 0.75
686.00 288.00 0.00 11.92 0.75
687.00 288.00 0.00 11.92 0.75
688.00 288.00 0.00 11.92 0.75
689.00 288.00 0.00 11.93 0.75
690.00 288.00 0.00 11.93 0.75
691.00 288.00 0.00 11.93 0.75
692.00 288.00 0.00 11.94 0.75
693.00 288.00 0.00 11.94 0.75
694.00 288.00 0.00 11.94 0.75
695.00 288.00 0.00 11.94 0.75
696.00 288.00 0.00 11.95 0.75
697.00 288.00 0.00 11.95 0.75
698.00 288.00 0.00 11.95 0.75
699.00 288.00 0.00 11.95 0.75
700.00 288.00 0.00 11.95 0.76
701.00 288.00 0.00 11.96 0.76
702.00 288.00 0.00 11.96 0.76
703.00 288.00 0.00 11.96 0.76
704.00 288.00 0.00 11.96 0.76
705.00 288.00 0.00 11.96 0.76
706.00 288.00 0.00 11.96 0.76
707.00 288.00 0.00 11.96 0.76
708.00 288.00 0.00 11.97 0.76
709.00 288.00 0.00 11.97 0.76
710.00 288.00 0.00 11.97 0.76
711.00 288.00 0.00 11.97 0.76
712.00 288.00 0.00 11.97 0.76
713.00 288.00 0.00 11.97 0.76
714.00 288.00 0.00 11.97 0.76
715.00 288.00 0.00 11.97 0.76
716.00 288.00 0.00 11.97 0.76
717.00 288.00 0.00 11.97 0.76
718.00 288.00 0.00 11.97 0.76
719.00 288.00 0.00 11.97 0.76
720.00 288.00 0.00 11.97 0.76
721.00 288.00 0.00 11.97 0.76
722.00 288.00 0.00 11.97 0.76
723.00 288.00 0.00 11.97 0.76
724.00 288.00 0.00 11.97 0.76
725.00 288.00 0.00 11.97 0.76
726.00 288.00 0.00 11.97 0.76
727.00 288.00 0.00 11.97 0.76
728.00 288.00 0.00 11.97 0.76
729.00 288.00 0.00 11.97 0.76
730.00 288.00 0.00 11.97 0.76
731.00 288.00 0.00 11.97 0.76
732.00 288.00 0.00 11.97 0.76
733.00 288.00 0.00 11.97 0.76
734.00 288.00 0.00 11.97 0.76
735.00 288.00 0.00 11.97 0.76
736.00 288.00 0.00 11.97 0.76
737.00 288.00 0.00 11.97 0.76
738.00 288.00 0.00 11.97 0.76
739.00 288.00 0.00 11.97 0.76
740.00 288.00 0.00 11.97 0.76
741.00 288.00 0.00 11.97 0.76
742.00 288.00 0.00 11.97 0.76
743.00 288.00 0.00 11.97 0.76
744.00 288.00 0.00 11.97 0.76
745.00 288.00 0.00 11.97 0.76
746.00 288.00 0.00 11.97 0.76
747.00 288.00 0.00 11.97 0.76
748.00 288.00 0.00 11.97 0.76
749.00 288.00 0.00 11.97 0.76
750.00 288.00 0.00 11.97 0.76
751.00 288.00 0.00 11.97 0.76
752.00 288.00 0.00 11.97 0.76
753.00 288.00 0.00 11.97 0.76
754.00 288.00 0.00 11.97 0.76
755.00 288.00 0.00 11.97 0.76
756.00 288.00 0.00 11.97 0.76
757.00 288.00 0.00 11.97 0.76
758.00 288.00 0.00 11.97 0.76
759.00 288.00 0.00 11.97 0.76
760.00 288.00 0.00 11.97 0.76
761.00 288.00 0.00 11.97 0.76
762.00 288.00 0.00 11.97 0.76
763.00 288.00 0.00 11.97 0.76
764.00 288.00 0.00 11.97 0.76
765.00 288.00 0.00 11.97 0.76
766.00 288.00 0.00 11.97 0.76
767.00 288.00 0.00 11.97 0.76
768.00 288.00 0.00 11.97 0.76
769.00 288.00 0.00 11.97 0.76
770.00 288.00 0.00 11.97 0.76
771.00 288.00 0.00 11.97 0.76
772.00 288.00 0.00 11.97 0.76
773.00 288.00 0.00 11.97 0.76
774.00 288.00 0.00 11.97 0.76
775.00 288.00 0.00 11.97 0.76
776.00 288.00 0.00 11.97 0.76
777.00 288.00 0.00 11.97 0.76
778.00 288.00 0.00 11.97 0.76
779.00 288.00 0.00 11.97 0.76
780.00 288.00 0.00 11.97 0.76
781.00 288.00 0.00 11.97 0.76
782.00 288.00 0.00 11.97 0.76
783.00 288.00 0.00 11.97 0.76
784.00 288.00 0.00 11.97 0.76
785.00 288.00 0.00 11.97 0.76
786.00 288.00 0.00 11.97 0.76
787.00 288.00 0.00 11.97 0.76
788.00 288.00 0.00 11.97 0.76
789.00 288.00 0.00 11.97 0.76
790.00 288.00 0.00 11.97 0.76
791.00 288.00 0.00 11.97 0.76
792.00 288.00 0.00 11.97 0.76
793.00 288.00 0.00 11.97 0.76
794.00 288.00 0.00 11.97 0.76
795.00 288.00 0.00 11.97 0.76
796.00 288.00 0.00 11.97 0.76
797.00 288.00 0.00 11.97 0.76
798.00 288.00 0.00 11.97 0.76
799.00 288.00 0.00 11.97 0.76
800.00 288.00 0.00 11.97 0.76
801.00 288.00 0.00 11.97 0.76
802.00 288.00 0.00 11.97 0.76
803.00 288.00 0.00 11.97 0.76
804.00 288.00 0.00 11.97 0.76
805.00 288.00 0.00 11.97 0.76
806.00 288.00 0.00 11.97 0.76
807.00 288.00 0.00 11.97 0.76
808.00 288.00 0.00 11.97 0.76
809.00 288.00 0.00 11.97 0.76
810.00 288.00 0.00 11.97 0.76
811.00 288.00 0.00 11.97 0.76
812.00 288.00 0.00 11.97 0.76
813.00 288.00 0.00 11.97 0.76
814.00 288.00 0.00 11.97 0.76
815.00 288.00 0.00 11.97 0.76
816.00 288.00 0.00 11.97 0.76
817.00 288.00 0.00 11.97 0.76
818.00 288.00 0.00 11.97 0.76
819.00 288.00 0.00 11.97 0.76
820.00 288.00 0.00 11.97 0.76
821.00 288.00 0.00 11.97 0.76
822.00 288.00 0.00 11.97 0.76
823.00 288.00 0.00 11.97 0.76
824.00 288.00 0.00 11.97 0.76
825.00 288.00 0.00 11.97 0.76
826.00 288.00 0.00 11.97 0.76
827.00 288.00 0.00 11.97 0.76
828.00 288.00 0.00 11.97 0.76
829.00 288.00 0.00 11.97 0.76
830.00 288.00 0.00 11.97 0.76
831.00 288.00 0.00 11.97 0.76
