1000.00 288.00 00.00
0.00 288.00 0.00 3.50 -6.14
1.00 288.00 0.00 3.50 -6.14
2.00 288.00 0.00 3.50 -6.14
3.00 288.00 0.00 3.50 -6.14
4.00 288.00 0.00 3.50 -6.14
5.00 288.00 0.00 3.50 -6.14
6.00 288.00 0.00 3.50 -6.14
7.00 288.00 0.00 3.50 -6.14
8.00 288.00 0.00 3.50 -6.14
9.00 288.00 0.00 3.50 -6.14
10.00 288.00 0.00 3.50 -6.14
11.00 288.00 0.00 3.50 -6.14
12.00 288.00 0.00 3.50 -6.14
13.00 288.00 0.00 3.50 -6.14
14.00 288.00 0.00 3.50 -6.14
15.00 288.00 0.00 3.50 -6.14
16.00 288.00 0.00 3.50 -6.14
17.00 288.00 0.00 3.50 -6.14
18.00 288.00 0.00 3.50 -6.14
19.00 288.00 0.00 3.50 -6.14
20.00 288.00 0.00 3.50 -6.14
21.00 288.00 0.00 3.50 -6.14
22.00 288.00 0.00 3.50 -6.14
23.00 288.00 0.00 3.50 -6.14
24.00 288.00 0.00 3.50 -6.14
25.00 288.00 0.00 3.50 -6.14
26.00 288.00 0.00 3.50 -6.14
27.00 288.00 0.00 3.50 -6.14
28.00 288.00 0.00 3.50 -6.14
29.00 288.00 0.00 3.50 -6.14
30.00 288.00 0.00 3.50 -6.14
31.00 288.00 0.00 3.50 -6.14
32.00 288.00 0.00 3.50 -6.14
33.00 288.00 0.00 3.50 -6.14
34.00 288.00 0.00 3.50 -6.14
35.00 288.00 0.00 3.50 -6.14
36.00 288.00 0.00 3.50 -6.14
37.00 288.00 0.00 3.50 -6.14
38.00 288.00 0.00 3.50 -6.14
39.00 288.00 0.00 3.50 -6.14
40.00 288.00 0.00 3.50 -6.14
41.00 288.00 0.00 3.50 -6.14
42.00 288.00 0.00 3.50 -6.14
43.00 288.00 0.00 3.50 -6.14
44.00 288.00 0.00 3.50 -6.14
45.00 288.00 0.00 3.50 -6.14
46.00 288.00 0.00 3.50 -6.14
47.00 288.00 0.00 3.50 -6.14
48.00 288.00 0.00 3.50 -6.14
49.00 288.00 0.00 3.50 -6.14
50.00 288.00 0.00 3.50 -6.14
51.00 288.00 0.00 3.50 -6.14
52.00 288.00 0.00 3.50 -6.14
53.00 288.00 0.00 3.50 -6.14
54.00 288.00 0.00 3.50 -6.14
55.00 288.00 0.00 3.50 -6.14
56.00 288.00 0.00 3.50 -6.14
57.00 288.00 0.00 3.50 -6.14
58.00 288.00 0.00 3.50 -6.14
59.00 288.00 0.00 3.50 -6.14
60.00 288.00 0.00 3.50 -6.14
61.00 288.00 0.00 3.50 -6.14
62.00 288.00 0.00 3.50 -6.14
63.00 288.00 0.00 3.50 -6.14
64.00 288.00 0.00 3.50 -6.14
65.00 288.00 0.00 3.50 -6.14
66.00 288.00 0.00 3.50 -6.14
67.00 288.00 0.00 3.50 -6.14
68.00 288.00 0.00 3.50 -6.14
69.00 288.00 0.00 3.50 -6.14
70.00 288.00 0.00 3.50 -6.14
71.00 288.00 0.00 3.50 -6.14
72.00 288.00 0.00 3.50 -6.14
73.00 288.00 0.00 3.50 -6.14
74.00 288.00 0.00 3.50 -6.14
75.00 288.00 0.00 3.50 -6.14
76.00 288.00 0.00 3.50 -6.14
77.00 288.00 0.00 3.50 -6.14
78.00 288.00 0.00 3.50 -6.14
79.00 288.00 0.00 3.50 -6.14
80.00 288.00 0.00 3.50 -6.14
81.00 288.00 0.00 3.50 -6.14
82.00 288.00 0.00 3.50 -6.14
83.00 288.00 0.00 3.50 -6.14
84.00 288.00 0.00 3.50 -6.14
85.00 288.00 0.00 3.50 -6.14
86.00 288.00 0.00 3.50 -6.14
87.00 288.00 0.00 3.50 -6.14
88.00 288.00 0.00 3.50 -6.14
89.00 288.00 0.00 3.50 -6.14
90.00 288.00 0.00 3.50 -6.14
91.00 288.00 0.00 3.50 -6.14
92.00 288.00 0.00 3.50 -6.14
93.00 288.00 0.00 3.50 -6.14
94.00 288.00 0.00 3.50 -6.14
95.00 288.00 0.00 3.50 -6.14
96.00 288.00 0.00 3.50 -6.14
97.00 288.00 0.00 3.50 -6.14
98.00 288.00 0.00 3.50 -6.14
99.00 288.00 0.00 3.50 -6.14
100.00 288.00 0.00 3.50 -6.14
101.00 288.00 0.00 3.50 -6.14
102.00 288.00 0.00 3.50 -6.14
103.00 288.00 0.00 3.50 -6.14
104.00 288.00 0.00 3.50 -6.14
105.00 288.00 0.00 3.50 -6.14
106.00 288.00 0.00 3.50 -6.14
107.00 288.00 0.00 3.50 -6.14
108.00 288.00 0.00 3.50 -6.14
109.00 288.00 0.00 3.50 -6.14
110.00 288.00 0.00 3.50 -6.14
111.00 288.00 0.00 3.50 -6.14
112.00 288.00 0.00 3.50 -6.14
113.00 288.00 0.00 3.50 -6.14
114.00 288.00 0.00 3.50 -6.14
115.00 288.00 0.00 3.50 -6.14
116.00 288.00 0.00 3.50 -6.14
117.00 288.00 0.00 3.50 -6.14
118.00 288.00 0.00 3.50 -6.14
119.00 288.00 0.00 3.50 -6.14
120.00 288.00 0.00 3.50 -6.13
121.00 288.00 0.00 3.50 -6.13
122.00 288.00 0.00 3.50 -6.13
123.00 288.00 0.00 3.50 -6.13
124.00 288.00 0.00 3.51 -6.13
125.00 288.00 0.00 3.51 -6.13
126.00 288.00 0.00 3.51 -6.13
127.00 288.00 0.00 3.51 -6.13
128.00 288.00 0.00 3.51 -6.13
129.00 288.00 0.00 3.51 -6.12
130.00 288.00 0.00 3.51 -6.12
131.00 288.00 0.00 3.52 -6.12
132.00 288.00 0.00 3.52 -6.12
133.00 288.00 0.00 3.52 -6.12
134.00 288.00 0.00 3.52 -6.11
135.00 288.00 0.00 3.52 -6.11
136.00 288.00 0.00 3.53 -6.11
137.00 288.00 0.00 3.53 -6.11
138.00 288.00 0.00 3.53 -6.10
139.00 288.00 0.00 3.53 -6.10
140.00 288.00 0.00 3.54 -6.10
141.00 288.00 0.00 3.54 -6.09
142.00 288.00 0.00 3.54 -6.09
143.00 288.00 0.00 3.55 -6.09
144.00 288.00 0.00 3.55 -6.08
145.00 288.00 0.00 3.55 -6.08
146.00 288.00 0.00 3.56 -6.08
147.00 288.00 0.00 3.56 -6.07
148.00 288.00 0.00 3.56 -6.07
149.00 288.00 0.00 3.57 -6.07
150.00 288.00 0.00 3.57 -6.06
151.00 288.00 0.00 3.57 -6.06
152.00 288.00 0.00 3.58 -6.05
153.00 288.00 0.00 3.58 -6.05
154.00 288.00 0.00 3.59 -6.04
155.00 288.00 0.00 3.59 -6.04
156.00 288.00 0.00 3.60 -6.03
157.00 288.00 0.00 3.60 -6.03
158.00 288.00 0.00 3.61 -6.02
159.00 288.00 0.00 3.61 -6.02
160.00 288.00 0.00 3.62 -6.01
161.00 288.00 0.00 3.62 -6.01
162.00 288.00 0.00 3.63 -6.00
163.00 288.00 0.00 3.63 -5.99
164.00 288.00 0.00 3.64 -5.99
165.00 288.00 0.00 3.64 -5.98
166.00 288.00 0.00 3.65 -5.97
167.00 288.00 0.00 3.65 -5.97
168.00 288.00 0.00 3.66 -5.96
169.00 288.00 0.00 3.67 -5.95
170.00 288.00 0.00 3.67 -5.95
171.00 288.00 0.00 3.68 -5.94
172.00 288.00 0.00 3.69 -5.93
173.00 288.00 0.00 3.69 -5.93
174.00 288.00 0.00 3.70 -5.92
175.00 288.00 0.00 3.70 -5.91
176.00 288.00 0.00 3.71 -5.90
177.00 288.00 0.00 3.72 -5.89
178.00 288.00 0.00 3.73 -5.89
179.00 288.00 0.00 3.73 -5.88
180.00 288.00 0.00 3.74 -5.87
181.00 288.00 0.00 3.75 -5.86
182.00 288.00 0.00 3.75 -5.85
183.00 288.00 0.00 3.76 -5.84
184.00 288.00 0.00 3.77 -5.83
185.00 288.00 0.00 3.78 -5.82
186.00 288.00 0.00 3.79 -5.82
187.00 288.00 0.00 3.79 -5.81
188.00 288.00 0.00 3.80 -5.80
189.00 288.00 0.00 3.81 -5.79
190.00 288.00 0.00 3.82 -5.78
191.00 288.00 0.00 3.83 -5.77
192.00 288.00 0.00 3.84 -5.75
193.00 288.00 0.00 3.84 -5.74
194.00 288.00 0.00 3.85 -5.73
195.00 288.00 0.00 3.86 -5.72
196.00 288.00 0.00 3.87 -5.71
197.00 288.00 0.00 3.88 -5.70
198.00 288.00 0.00 3.89 -5.69
199.00 288.00 0.00 3.90 -5.68
200.00 288.00 0.00 3.91 -5.66
201.00 288.00 0.00 3.92 -5.65
202.00 288.00 0.00 3.93 -5.64
203.00 288.00 0.00 3.94 -5.63
204.00 288.00 0.00 3.95 -5.61
205.00 288.00 0.00 3.96 -5.60
206.00 288.00 0.00 3.97 -5.59
207.00 288.00 0.00 3.98 -5.57
208.00 288.00 0.00 3.99 -5.56
209.00 288.00 0.00 4.00 -5.55
210.00 288.00 0.00 4.01 -5.53
211.00 288.00 0.00 4.02 -5.52
212.00 288.00 0.00 4.03 -5.50
213.00 288.00 0.00 4.04 -5.49
214.00 288.00 0.00 4.05 -5.48
215.00 288.00 0.00 4.06 -5.46
216.00 288.00 0.00 4.08 -5.45
217.00 288.00 0.00 4.09 -5.43
218.00 288.00 0.00 4.10 -5.41
219.00 288.00 0.00 4.11 -5.40
220.00 288.00 0.00 4.12 -5.38
221.00 288.00 0.00 4.13 -5.37
222.00 288.00 0.00 4.15 -5.35
223.00 288.00 0.00 4.16 -5.33
224.00 288.00 0.00 4.17 -5.32
225.00 288.00 0.00 4.18 -5.30
226.00 288.00 0.00 4.20 -5.28
227.00 288.00 0.00 4.21 -5.26
228.00 288.00 0.00 4.22 -5.25
229.00 288.00 0.00 4.23 -5.23
230.00 288.00 0.00 4.25 -5.21
231.00 288.00 0.00 4.26 -5.19
232.00 288.00 0.00 4.27 -5.17
233.00 288.00 0.00 4.29 -5.15
234.00 288.00 0.00 4.30 -5.13
235.00 288.00 0.00 4.31 -5.11
236.00 288.00 0.00 4.33 -5.09
237.00 288.00 0.00 4.34 -5.07
238.00 288.00 0.00 4.35 -5.05
239.00 288.00 0.00 4.37 -5.03
240.00 288.00 0.00 4.38 -5.01
241.00 288.00 0.00 4.39 -4.99
242.00 288.00 0.00 4.41 -4.97
243.00 288.00 0.00 4.42 -4.95
244.00 288.00 0.00 4.44 -4.92
245.00 288.00 0.00 4.45 -4.90
246.00 288.00 0.00 4.47 -4.88
247.00 288.00 0.00 4.48 -4.86
248.00 288.00 0.00 4.50 -4.83
249.00 288.00 0.00 4.51 -4.81
250.00 288.00 0.00 4.53 -4.79
251.00 288.00 0.00 4.54 -4.76
252.00 288.00 0.00 4.56 -4.74
253.00 288.00 0.00 4.57 -4.71
254.00 288.00 0.00 4.59 -4.69
255.00 288.00 0.00 4.60 -4.67
256.00 288.00 0.00 4.62 -4.64
257.00 288.00 0.00 4.64 -4.61
258.00 288.00 0.00 4.65 -4.59
259.00 288.00 0.00 4.67 -4.56
260.00 288.00 0.00 4.68 -4.54
261.00 288.00 0.00 4.70 -4.51
262.00 288.00 0.00 4.72 -4.48
263.00 288.00 0.00 4.73 -4.45
264.00 288.00 0.00 4.75 -4.43
265.00 288.00 0.00 4.77 -4.40
266.00 288.00 0.00 4.78 -4.37
267.00 288.00 0.00 4.80 -4.34
268.00 288.00 0.00 4.82 -4.31
269.00 288.00 0.00 4.83 -4.28
270.00 288.00 0.00 4.85 -4.25
271.00 288.00 0.00 4.87 -4.23
272.00 288.00 0.00 4.89 -4.20
273.00 288.00 0.00 4.90 -4.16
274.00 288.00 0.00 4.92 -4.13
275.00 288.00 0.00 4.94 -4.10
276.00 288.00 0.00 4.96 -4.07
277.00 288.00 0.00 4.98 -4.04
278.00 288.00 0.00 4.99 -4.01
279.00 288.00 0.00 5.01 -3.98
280.00 288.00 0.00 5.03 -3.94
281.00 288.00 0.00 5.05 -3.91
282.00 288.00 0.00 5.07 -3.88
283.00 288.00 0.00 5.09 -3.84
284.00 288.00 0.00 5.11 -3.81
285.00 288.00 0.00 5.13 -3.78
286.00 288.00 0.00 5.14 -3.74
287.00 288.00 0.00 5.16 -3.71
288.00 288.00 0.00 5.18 -3.67
289.00 288.00 0.00 5.20 -3.63
290.00 288.00 0.00 5.22 -3.60
291.00 288.00 0.00 5.24 -3.56
292.00 288.00 0.00 5.26 -3.53
293.00 288.00 0.00 5.28 -3.49
294.00 288.00 0.00 5.30 -3.45
295.00 288.00 0.00 5.32 -3.41
296.00 288.00 0.00 5.34 -3.38
297.00 288.00 0.00 5.36 -3.34
298.00 288.00 0.00 5.38 -3.30
299.00 288.00 0.00 5.40 -3.26
300.00 288.00 0.00 5.42 -3.23
301.00 288.00 0.00 5.44 -3.19
302.00 288.00 0.00 5.46 -3.15
303.00 288.00 0.00 5.48 -3.11
304.00 288.00 0.00 5.50 -3.07
305.00 288.00 0.00 5.52 -3.03
306.00 288.00 0.00 5.54 -2.99
307.00 288.00 0.00 5.56 -2.96
308.00 288.00 0.00 5.58 -2.92
309.00 288.00 0.00 5.60 -2.88
310.00 288.00 0.00 5.62 -2.84
311.00 288.00 0.00 5.64 -2.80
312.00 288.00 0.00 5.66 -2.76
313.00 288.00 0.00 5.68 -2.72
314.00 288.00 0.00 5.70 -2.68
315.00 288.00 0.00 5.72 -2.64
316.00 288.00 0.00 5.74 -2.60
317.00 288.00 0.00 5.76 -2.56
318.00 288.00 0.00 5.78 -2.52
319.00 288.00 0.00 5.80 -2.48
320.00 288.00 0.00 5.82 -2.44
321.00 288.00 0.00 5.84 -2.40
322.00 288.00 0.00 5.86 -2.36
323.00 288.00 0.00 5.88 -2.32
324.00 288.00 0.00 5.90 -2.28
325.00 288.00 0.00 5.92 -2.24
326.00 288.00 0.00 5.94 -2.20
327.00 288.00 0.00 5.96 -2.16
328.00 288.00 0.00 5.98 -2.12
329.00 288.00 0.00 6.01 -2.07
330.00 288.00 0.00 6.03 -2.03
331.00 288.00 0.00 6.05 -1.99
332.00 288.00 0.00 6.07 -1.95
333.00 288.00 0.00 6.09 -1.91
334.00 288.00 0.00 6.11 -1.87
335.00 288.00 0.00 6.13 -1.83
336.00 288.00 0.00 6.15 -1.79
337.00 288.00 0.00 6.17 -1.74
338.00 288.00 0.00 6.19 -1.70
339.00 288.00 0.00 6.21 -1.66
340.00 288.00 0.00 6.23 -1.62
341.00 288.00 0.00 6.25 -1.58
342.00 288.00 0.00 6.27 -1.53
343.00 288.00 0.00 6.29 -1.49
344.00 288.00 0.00 6.31 -1.45
345.00 288.00 0.00 6.33 -1.41
346.00 288.00 0.00 6.35 -1.37
347.00 288.00 0.00 6.37 -1.32
348.00 288.00 0.00 6.39 -1.28
349.00 288.00 0.00 6.41 -1.24
350.00 288.00 0.00 6.43 -1.20
351.00 288.00 0.00 6.45 -1.16
352.00 288.00 0.00 6.47 -1.11
353.00 288.00 0.00 6.49 -1.07
354.00 288.00 0.00 6.51 -1.03
355.00 288.00 0.00 6.53 -0.99
356.00 288.00 0.00 6.55 -0.94
357.00 288.00 0.00 6.57 -0.90
358.00 288.00 0.00 6.59 -0.86
359.00 288.00 0.00 6.61 -0.81
360.00 288.00 0.00 6.63 -0.77
361.00 288.00 0.00 6.65 -0.73
362.00 288.00 0.00 6.67 -0.69
363.00 288.00 0.00 6.69 -0.64
364.00 288.00 0.00 6.71 -0.60
365.00 288.00 0.00 6.73 -0.56
366.00 288.00 0.00 6.75 -0.52
367.00 288.00 0.00 6.77 -0.47
368.00 288.00 0.00 6.79 -0.43
369.00 288.00 0.00 6.81 -0.39
370.00 288.00 0.00 6.83 -0.34
371.00 288.00 0.00 6.85 -0.30
372.00 288.00 0.00 6.87 -0.26
373.00 288.00 0.00 6.89 -0.21
374.00 288.00 0.00 6.91 -0.17
375.00 288.00 0.00 6.93 -0.13
376.00 288.00 0.00 6.95 -0.09
377.00 288.00 0.00 6.97 -0.04
378.00 288.00 0.00 6.99 0.00
379.00 288.00 0.00 7.01 0.04
380.00 288.00 0.00 7.03 0.09
381.00 288.00 0.00 7.05 0.13
382.00 288.00 0.00 7.07 0.17
383.00 288.00 0.00 7.09 0.21
384.00 288.00 0.00 7.11 0.26
385.00 288.00 0.00 7.13 0.30
386.00 288.00 0.00 7.15 0.34
387.00 288.00 0.00 7.17 0.39
388.00 288.00 0.00 7.19 0.43
389.00 288.00 0.00 7.21 0.47
390.00 288.00 0.00 7.23 0.52
391.00 288.00 0.00 7.25 0.56
392.00 288.00 0.00 7.27 0.60
393.00 288.00 0.00 7.29 0.64
394.00 288.00 0.00 7.31 0.69
395.00 288.00 0.00 7.33 0.73
396.00 288.00 0.00 7.35 0.77
397.00 288.00 0.00 7.37 0.81
398.00 288.00 0.00 7.39 0.86
399.00 288.00 0.00 7.41 0.90
400.00 288.00 0.00 7.43 0.94
401.00 288.00 0.00 7.45 0.99
402.00 288.00 0.00 7.47 1.03
403.00 288.00 0.00 7.49 1.07
404.00 288.00 0.00 7.51 1.11
405.00 288.00 0.00 7.53 1.16
406.00 288.00 0.00 7.55 1.20
407.00 288.00 0.00 7.57 1.24
408.00 288.00 0.00 7.59 1.28
409.00 288.00 0.00 7.61 1.32
410.00 288.00 0.00 7.63 1.37
411.00 288.00 0.00 7.65 1.41
412.00 288.00 0.00 7.67 1.45
413.00 288.00 0.00 7.69 1.49
414.00 288.00 0.00 7.71 1.53
415.00 288.00 0.00 7.73 1.58
416.00 288.00 0.00 7.75 1.62
417.00 288.00 0.00 7.77 1.66
418.00 288.00 0.00 7.79 1.70
419.00 288.00 0.00 7.81 1.74
420.00 288.00 0.00 7.83 1.79
421.00 288.00 0.00 7.85 1.83
422.00 288.00 0.00 7.87 1.87
423.00 288.00 0.00 7.89 1.91
424.00 288.00 0.00 7.91 1.95
425.00 288.00 0.00 7.93 1.99
426.00 288.00 0.00 7.95 2.03
427.00 288.00 0.00 7.97 2.07
428.00 288.00 0.00 7.99 2.12
429.00 288.00 0.00 8.02 2.16
430.00 288.00 0.00 8.04 2.20
431.00 288.00 0.00 8.06 2.24
432.00 288.00 0.00 8.08 2.28
433.00 288.00 0.00 8.10 2.32
434.00 288.00 0.00 8.12 2.36
435.00 288.00 0.00 8.14 2.40
436.00 288.00 0.00 8.16 2.44
437.00 288.00 0.00 8.18 2.48
438.00 288.00 0.00 8.20 2.52
439.00 288.00 0.00 8.22 2.56
440.00 288.00 0.00 8.24 2.60
441.00 288.00 0.00 8.26 2.64
442.00 288.00 0.00 8.28 2.68
443.00 288.00 0.00 8.30 2.72
444.00 288.00 0.00 8.32 2.76
445.00 288.00 0.00 8.34 2.80
446.00 288.00 0.00 8.36 2.84
447.00 288.00 0.00 8.38 2.88
448.00 288.00 0.00 8.40 2.92
449.00 288.00 0.00 8.42 2.96
450.00 288.00 0.00 8.44 2.99
451.00 288.00 0.00 8.46 3.03
452.00 288.00 0.00 8.48 3.07
453.00 288.00 0.00 8.50 3.11
454.00 288.00 0.00 8.52 3.15
455.00 288.00 0.00 8.54 3.19
456.00 288.00 0.00 8.56 3.23
457.00 288.00 0.00 8.58 3.26
458.00 288.00 0.00 8.60 3.30
459.00 288.00 0.00 8.62 3.34
460.00 288.00 0.00 8.64 3.38
461.00 288.00 0.00 8.66 3.41
462.00 288.00 0.00 8.68 3.45
463.00 288.00 0.00 8.70 3.49
464.00 288.00 0.00 8.72 3.53
465.00 288.00 0.00 8.74 3.56
466.00 288.00 0.00 8.76 3.60
467.00 288.00 0.00 8.78 3.63
468.00 288.00 0.00 8.80 3.67
469.00 288.00 0.00 8.82 3.71
470.00 288.00 0.00 8.84 3.74
471.00 288.00 0.00 8.86 3.78
472.00 288.00 0.00 8.87 3.81
473.00 288.00 0.00 8.89 3.84
474.00 288.00 0.00 8.91 3.88
475.00 288.00 0.00 8.93 3.91
476.00 288.00 0.00 8.95 3.94
477.00 288.00 0.00 8.97 3.98
478.00 288.00 0.00 8.99 4.01
479.00 288.00 0.00 9.01 4.04
480.00 288.00 0.00 9.02 4.07
481.00 288.00 0.00 9.04 4.10
482.00 288.00 0.00 9.06 4.13
483.00 288.00 0.00 9.08 4.16
484.00 288.00 0.00 9.10 4.20
485.00 288.00 0.00 9.11 4.23
486.00 288.00 0.00 9.13 4.25
487.00 288.00 0.00 9.15 4.28
488.00 288.00 0.00 9.17 4.31
489.00 288.00 0.00 9.18 4.34
490.00 288.00 0.00 9.20 4.37
491.00 288.00 0.00 9.22 4.40
492.00 288.00 0.00 9.23 4.43
493.00 288.00 0.00 9.25 4.45
494.00 288.00 0.00 9.27 4.48
495.00 288.00 0.00 9.28 4.51
496.00 288.00 0.00 9.30 4.54
497.00 288.00 0.00 9.32 4.56
498.00 288.00 0.00 9.33 4.59
499.00 288.00 0.00 9.35 4.61
500.00 288.00 0.00 9.36 4.64
501.00 288.00 0.00 9.38 4.67
502.00 288.00 0.00 9.40 4.69
503.00 288.00 0.00 9.41 4.71
504.00 288.00 0.00 9.43 4.74
505.00 288.00 0.00 9.44 4.76
506.00 288.00 0.00 9.46 4.79
507.00 288.00 0.00 9.47 4.81
508.00 288.00 0.00 9.49 4.83
509.00 288.00 0.00 9.50 4.86
510.00 288.00 0.00 9.52 4.88
511.00 288.00 0.00 9.53 4.90
512.00 288.00 0.00 9.55 4.92
513.00 288.00 0.00 9.56 4.95
514.00 288.00 0.00 9.58 4.97
515.00 288.00 0.00 9.59 4.99
516.00 288.00 0.00 9.61 5.01
517.00 288.00 0.00 9.62 5.03
518.00 288.00 0.00 9.63 5.05
519.00 288.00 0.00 9.65 5.07
520.00 288.00 0.00 9.66 5.09
521.00 288.00 0.00 9.67 5.11
522.00 288.00 0.00 9.69 5.13
523.00 288.00 0.00 9.70 5.15
524.00 288.00 0.00 9.71 5.17
525.00 288.00 0.00 9.73 5.19
526.00 288.00 0.00 9.74 5.21
527.00 288.00 0.00 9.75 5.23
528.00 288.00 0.00 9.77 5.25
529.00 288.00 0.00 9.78 5.26
530.00 288.00 0.00 9.79 5.28
531.00 288.00 0.00 9.80 5.30
532.00 288.00 0.00 9.82 5.32
533.00 288.00 0.00 9.83 5.33
534.00 288.00 0.00 9.84 5.35
535.00 288.00 0.00 9.85 5.37
536.00 288.00 0.00 9.87 5.38
537.00 288.00 0.00 9.88 5.40
538.00 288.00 0.00 9.89 5.41
539.00 288.00 0.00 9.90 5.43
540.00 288.00 0.00 9.91 5.45
541.00 288.00 0.00 9.92 5.46
542.00 288.00 0.00 9.94 5.48
543.00 288.00 0.00 9.95 5.49
544.00 288.00 0.00 9.96 5.50
545.00 288.00 0.00 9.97 5.52
546.00 288.00 0.00 9.98 5.53
547.00 288.00 0.00 9.99 5.55
548.00 288.00 0.00 10.00 5.56
549.00 288.00 0.00 10.01 5.57
550.00 288.00 0.00 10.02 5.59
551.00 288.00 0.00 10.03 5.60
552.00 288.00 0.00 10.04 5.61
553.00 288.00 0.00 10.05 5.63
554.00 288.00 0.00 10.06 5.64
555.00 288.00 0.00 10.07 5.65
556.00 288.00 0.00 10.08 5.66
557.00 288.00 0.00 10.09 5.68
558.00 288.00 0.00 10.10 5.69
559.00 288.00 0.00 10.11 5.70
560.00 288.00 0.00 10.12 5.71
561.00 288.00 0.00 10.13 5.72
562.00 288.00 0.00 10.14 5.73
563.00 288.00 0.00 10.15 5.74
564.00 288.00 0.00 10.16 5.75
565.00 288.00 0.00 10.16 5.77
566.00 288.00 0.00 10.17 5.78
567.00 288.00 0.00 10.18 5.79
568.00 288.00 0.00 10.19 5.80
569.00 288.00 0.00 10.20 5.81
570.00 288.00 0.00 10.21 5.82
571.00 288.00 0.00 10.21 5.82
572.00 288.00 0.00 10.22 5.83
573.00 288.00 0.00 10.23 5.84
574.00 288.00 0.00 10.24 5.85
575.00 288.00 0.00 10.25 5.86
576.00 288.00 0.00 10.25 5.87
577.00 288.00 0.00 10.26 5.88
578.00 288.00 0.00 10.27 5.89
579.00 288.00 0.00 10.27 5.89
580.00 288.00 0.00 10.28 5.90
581.00 288.00 0.00 10.29 5.91
582.00 288.00 0.00 10.30 5.92
583.00 288.00 0.00 10.30 5.93
584.00 288.00 0.00 10.31 5.93
585.00 288.00 0.00 10.31 5.94
586.00 288.00 0.00 10.32 5.95
587.00 288.00 0.00 10.33 5.95
588.00 288.00 0.00 10.33 5.96
589.00 288.00 0.00 10.34 5.97
590.00 288.00 0.00 10.35 5.97
591.00 288.00 0.00 10.35 5.98
592.00 288.00 0.00 10.36 5.99
593.00 288.00 0.00 10.36 5.99
594.00 288.00 0.00 10.37 6.00
595.00 288.00 0.00 10.37 6.01
596.00 288.00 0.00 10.38 6.01
597.00 288.00 0.00 10.38 6.02
598.00 288.00 0.00 10.39 6.02
599.00 288.00 0.00 10.39 6.03
600.00 288.00 0.00 10.40 6.03
601.00 288.00 0.00 10.40 6.04
602.00 288.00 0.00 10.41 6.04
603.00 288.00 0.00 10.41 6.05
604.00 288.00 0.00 10.42 6.05
605.00 288.00 0.00 10.42 6.06
606.00 288.00 0.00 10.43 6.06
607.00 288.00 0.00 10.43 6.07
608.00 288.00 0.00 10.43 6.07
609.00 288.00 0.00 10.44 6.07
610.00 288.00 0.00 10.44 6.08
611.00 288.00 0.00 10.44 6.08
612.00 288.00 0.00 10.45 6.08
613.00 288.00 0.00 10.45 6.09
614.00 288.00 0.00 10.45 6.09
615.00 288.00 0.00 10.46 6.09
616.00 288.00 0.00 10.46 6.10
617.00 288.00 0.00 10.46 6.10
618.00 288.00 0.00 10.47 6.10
619.00 288.00 0.00 10.47 6.11
620.00 288.00 0.00 10.47 6.11
621.00 288.00 0.00 10.47 6.11
622.00 288.00 0.00 10.48 6.11
623.00 288.00 0.00 10.48 6.12
624.00 288.00 0.00 10.48 6.12
625.00 288.00 0.00 10.48 6.12
626.00 288.00 0.00 10.48 6.12
627.00 288.00 0.00 10.49 6.12
628.00 288.00 0.00 10.49 6.13
629.00 288.00 0.00 10.49 6.13
630.00 288.00 0.00 10.49 6.13
631.00 288.00 0.00 10.49 6.13
632.00 288.00 0.00 10.49 6.13
633.00 288.00 0.00 10.49 6.13
634.00 288.00 0.00 10.50 6.13
635.00 288.00 0.00 10.50 6.13
636.00 288.00 0.00 10.50 6.13
637.00 288.00 0.00 10.50 6.14
638.00 288.00 0.00 10.50 6.14
639.00 288.00 0.00 10.50 6.14
640.00 288.00 0.00 10.50 6.14
641.00 288.00 0.00 10.50 6.14
642.00 288.00 0.00 10.50 6.14
643.00 288.00 0.00 10.50 6.14
644.00 288.00 0.00 10.50 6.14
645.00 288.00 0.00 10.50 6.14
646.00 288.00 0.00 10.50 6.14
647.00 288.00 0.00 10.50 6.14
648.00 288.00 0.00 10.50 6.14
649.00 288.00 0.00 10.50 6.14
650.00 288.00 0.00 10.50 6.14
651.00 288.00 0.00 10.50 6.14
652.00 288.00 0.00 10.50 6.14
653.00 288.00 0.00 10.50 6.14
654.00 288.00 0.00 10.50 6.14
655.00 288.00 0.00 10.50 6.14
656.00 288.00 0.00 10.50 6.14
657.00 288.00 0.00 10.50 6.14
658.00 288.00 0.00 10.50 6.14
659.00 288.00 0.00 10.50 6.14
660.00 288.00 0.00 10.50 6.14
661.00 288.00 0.00 10.50 6.14
662.00 288.00 0.00 10.50 6.14
663.00 288.00 0.00 10.50 6.14
664.00 288.00 0.00 10.50 6.14
665.00 288.00 0.00 10.50 6.14
666.00 288.00 0.00 10.50 6.14
667.00 288.00 0.00 10.50 6.14
668.00 288.00 0.00 10.50 6.14
669.00 288.00 0.00 10.50 6.14
670.00 288.00 0.00 10.50 6.14
671.00 288.00 0.00 10.50 6.14
672.00 288.00 0.00 10.50 6.14
673.00 288.00 0.00 10.50 6.14
674.00 288.00 0.00 10.50 6.14
675.00 288.00 0.00 10.50 6.14
676.00 288.00 0.00 10.50 6.14
677.00 288.00 0.00 10.50 6.14
678.00 288.00 0.00 10.50 6.14
679.00 288.00 0.00 10.50 6.14
680.00 288.00 0.00 10.50 6.14
681.00 288.00 0.00 10.50 6.14
682.00 288.00 0.00 10.50 6.14
683.00 288.00 0.00 10.50 6.14
684.00 288.00 0.00 10.50 6.14
685.00 288.00 0.00 10.50 6.14
686.00 288.00 0.00 10.50 6.14
687.00 288.00 0.00 10.50 6.14
688.00 288.00 0.00 10.50 6.14
689.00 288.00 0.00 10.50 6.14
690.00 288.00 0.00 10.50 6.14
691.00 288.00 0.00 10.50 6.14
692.00 288.00 0.00 10.50 6.14
693.00 288.00 0.00 10.50 6.14
694.00 288.00 0.00 10.50 6.14
695.00 288.00 0.00 10.50 6.14
696.00 288.00 0.00 10.50 6.14
697.00 288.00 0.00 10.50 6.14
698.00 288.00 0.00 10.50 6.14
699.00 288.00 0.00 10.50 6.14
700.00 288.00 0.00 10.50 6.14
701.00 288.00 0.00 10.50 6.14
702.00 288.00 0.00 10.50 6.14
703.00 288.00 0.00 10.50 6.14
704.00 288.00 0.00 10.50 6.14
705.00 288.00 0.00 10.50 6.14
706.00 288.00 0.00 10.50 6.14
707.00 288.00 0.00 10.50 6.14
708.00 288.00 0.00 10.50 6.14
709.00 288.00 0.00 10.50 6.14
710.00 288.00 0.00 10.50 6.14
711.00 288.00 0.00 10.50 6.14
712.00 288.00 0.00 10.50 6.14
713.00 288.00 0.00 10.50 6.14
714.00 288.00 0.00 10.50 6.14
715.00 288.00 0.00 10.50 6.14
716.00 288.00 0.00 10.50 6.14
717.00 288.00 0.00 10.50 6.14
718.00 288.00 0.00 10.50 6.14
719.00 288.00 0.00 10.50 6.14
720.00 288.00 0.00 10.50 6.14
721.00 288.00 0.00 10.50 6.14
722.00 288.00 0.00 10.50 6.14
723.00 288.00 0.00 10.50 6.14
724.00 288.00 0.00 10.50 6.14
725.00 288.00 0.00 10.50 6.14
726.00 288.00 0.00 10.50 6.14
727.00 288.00 0.00 10.50 6.14
728.00 288.00 0.00 10.50 6.14
729.00 288.00 0.00 10.50 6.14
730.00 288.00 0.00 10.50 6.14
731.00 288.00 0.00 10.50 6.14
732.00 288.00 0.00 10.50 6.14
733.00 288.00 0.00 10.50 6.14
734.00 288.00 0.00 10.50 6.14
735.00 288.00 0.00 10.50 6.14
736.00 288.00 0.00 10.50 6.14
737.00 288.00 0.00 10.50 6.14
738.00 288.00 0.00 10.50 6.14
739.00 288.00 0.00 10.50 6.14
740.00 288.00 0.00 10.50 6.14
741.00 288.00 0.00 10.50 6.14
742.00 288.00 0.00 10.50 6.14
743.00 288.00 0.00 10.50 6.14
744.00 288.00 0.00 10.50 6.14
745.00 288.00 0.00 10.50 6.14
746.00 288.00 0.00 10.50 6.14
747.00 288.00 0.00 10.50 6.14
748.00 288.00 0.00 10.50 6.14
749.00 288.00 0.00 10.50 6.14
750.00 288.00 0.00 10.50 6.14
751.00 288.00 0.00 10.50 6.14
752.00 288.00 0.00 10.50 6.14
753.00 288.00 0.00 10.50 6.14
754.00 288.00 0.00 10.50 6.14
755.00 288.00 0.00 10.50 6.14
756.00 288.00 0.00 10.50 6.14
757.00 288.00 0.00 10.50 6.14
758.00 288.00 0.00 10.50 6.14
759.00 288.00 0.00 10.50 6.14
760.00 288.00 0.00 10.50 6.14
761.00 288.00 0.00 10.50 6.14
762.00 288.00 0.00 10.50 6.14
763.00 288.00 0.00 10.50 6.14
764.00 288.00 0.00 10.50 6.14
765.00 288.00 0.00 10.50 6.14
766.00 288.00 0.00 10.50 6.14
767.00 288.00 0.00 10.50 6.14
768.00 288.00 0.00 10.50 6.14
769.00 288.00 0.00 10.50 6.14
770.00 288.00 0.00 10.50 6.14
771.00 288.00 0.00 10.50 6.14
772.00 288.00 0.00 10.50 6.14
773.00 288.00 0.00 10.50 6.14
774.00 288.00 0.00 10.50 6.14
775.00 288.00 0.00 10.50 6.14
776.00 288.00 0.00 10.50 6.14
777.00 288.00 0.00 10.50 6.14
778.00 288.00 0.00 10.50 6.14
779.00 288.00 0.00 10.50 6.14
780.00 288.00 0.00 10.50 6.14
781.00 288.00 0.00 10.50 6.14
782.00 288.00 0.00 10.50 6.14
783.00 288.00 0.00 10.50 6.14
784.00 288.00 0.00 10.50 6.14
785.00 288.00 0.00 10.50 6.14
786.00 288.00 0.00 10.50 6.14
787.00 288.00 0.00 10.50 6.14
788.00 288.00 0.00 10.50 6.14
789.00 288.00 0.00 10.50 6.14
790.00 288.00 0.00 10.50 6.14
791.00 288.00 0.00 10.50 6.14
792.00 288.00 0.00 10.50 6.14
793.00 288.00 0.00 10.50 6.14
794.00 288.00 0.00 10.50 6.14
795.00 288.00 0.00 10.50 6.14
796.00 288.00 0.00 10.50 6.14
797.00 288.00 0.00 10.50 6.14
798.00 288.00 0.00 10.50 6.14
799.00 288.00 0.00 10.50 6.14
800.00 288.00 0.00 10.50 6.14
801.00 288.00 0.00 10.50 6.14
802.00 288.00 0.00 10.50 6.14
803.00 288.00 0.00 10.50 6.14
804.00 288.00 0.00 10.50 6.14
805.00 288.00 0.00 10.50 6.14
806.00 288.00 0.00 10.50 6.14
807.00 288.00 0.00 10.50 6.14
808.00 288.00 0.00 10.50 6.14
809.00 288.00 0.00 10.50 6.14
810.00 288.00 0.00 10.50 6.14
811.00 288.00 0.00 10.50 6.14
812.00 288.00 0.00 10.50 6.14
813.00 288.00 0.00 10.50 6.14
814.00 288.00 0.00 10.50 6.14
815.00 288.00 0.00 10.50 6.14
816.00 288.00 0.00 10.50 6.14
817.00 288.00 0.00 10.50 6.14
818.00 288.00 0.00 10.50 6.14
819.00 288.00 0.00 10.50 6.14
820.00 288.00 0.00 10.50 6.14
821.00 288.00 0.00 10.50 6.14
822.00 288.00 0.00 10.50 6.14
823.00 288.00 0.00 10.50 6.14
824.00 288.00 0.00 10.50 6.14
825.00 288.00 0.00 10.50 6.14
826.00 288.00 0.00 10.50 6.14
827.00 288.00 0.00 10.50 6.14
828.00 288.00 0.00 10.50 6.14
829.00 288.00 0.00 10.50 6.14
830.00 288.00 0.00 10.50 6.14
831.00 288.00 0.00 10.50 6.14
