1000.00 288.00 00.00
0.00 288.00 0.00 -0.41 0.26
1.00 288.00 0.00 -0.41 0.26
2.00 288.00 0.00 -0.41 0.26
3.00 288.00 0.00 -0.41 0.26
4.00 288.00 0.00 -0.41 0.26
5.00 288.00 0.00 -0.41 0.26
6.00 288.00 0.00 -0.41 0.26
7.00 288.00 0.00 -0.41 0.26
8.00 288.00 0.00 -0.41 0.26
9.00 288.00 0.00 -0.41 0.26
10.00 288.00 0.00 -0.41 0.26
11.00 288.00 0.00 -0.41 0.26
12.00 288.00 0.00 -0.41 0.26
13.00 288.00 0.00 -0.41 0.26
14.00 288.00 0.00 -0.41 0.26
15.00 288.00 0.00 -0.41 0.26
16.00 288.00 0.00 -0.41 0.26
17.00 288.00 0.00 -0.41 0.26
18.00 288.00 0.00 -0.41 0.26
19.00 288.00 0.00 -0.41 0.26
20.00 288.00 0.00 -0.41 0.26
21.00 288.00 0.00 -0.41 0.26
22.00 288.00 0.00 -0.41 0.26
23.00 288.00 0.00 -0.41 0.26
24.00 288.00 0.00 -0.41 0.26
25.00 288.00 0.00 -0.41 0.26
26.00 288.00 0.00 -0.41 0.26
27.00 288.00 0.00 -0.41 0.26
28.00 288.00 0.00 -0.41 0.26
29.00 288.00 0.00 -0.41 0.26
30.00 288.00 0.00 -0.41 0.26
31.00 288.00 0.00 -0.41 0.26
32.00 288.00 0.00 -0.41 0.26
33.00 288.00 0.00 -0.41 0.26
34.00 288.00 0.00 -0.41 0.26
35.00 288.00 0.00 -0.41 0.26
36.00 288.00 0.00 -0.41 0.26
37.00 288.00 0.00 -0.41 0.26
38.00 288.00 0.00 -0.41 0.26
39.00 288.00 0.00 -0.41 0.26
40.00 288.00 0.00 -0.41 0.26
41.00 288.00 0.00 -0.41 0.26
42.00 288.00 0.00 -0.41 0.26
43.00 288.00 0.00 -0.41 0.26
44.00 288.00 0.00 -0.41 0.26
45.00 288.00 0.00 -0.41 0.26
46.00 288.00 0.00 -0.41 0.26
47.00 288.00 0.00 -0.41 0.26
48.00 288.00 0.00 -0.41 0.26
49.00 288.00 0.00 -0.41 0.26
50.00 288.00 0.00 -0.41 0.26
51.00 288.00 0.00 -0.41 0.26
52.00 288.00 0.00 -0.41 0.26
53.00 288.00 0.00 -0.41 0.26
54.00 288.00 0.00 -0.41 0.26
55.00 288.00 0.00 -0.41 0.26
56.00 288.00 0.00 -0.41 0.26
57.00 288.00 0.00 -0.41 0.26
58.00 288.00 0.00 -0.41 0.26
59.00 288.00 0.00 -0.41 0.26
60.00 288.00 0.00 -0.41 0.26
61.00 288.00 0.00 -0.41 0.26
62.00 288.00 0.00 -0.41 0.26
63.00 288.00 0.00 -0.41 0.26
64.00 288.00 0.00 -0.41 0.26
65.00 288.00 0.00 -0.41 0.26
66.00 288.00 0.00 -0.41 0.26
67.00 288.00 0.00 -0.41 0.26
68.00 288.00 0.00 -0.41 0.26
69.00 288.00 0.00 -0.41 0.26
70.00 288.00 0.00 -0.41 0.26
71.00 288.00 0.00 -0.41 0.26
72.00 288.00 0.00 -0.41 0.26
73.00 288.00 0.00 -0.41 0.26
74.00 288.00 0.00 -0.41 0.26
75.00 288.00 0.00 -0.41 0.26
76.00 288.00 0.00 -0.41 0.26
77.00 288.00 0.00 -0.41 0.26
78.00 288.00 0.00 -0.41 0.26
79.00 288.00 0.00 -0.41 0.26
80.00 288.00 0.00 -0.41 0.26
81.00 288.00 0.00 -0.41 0.26
82.00 288.00 0.00 -0.41 0.26
83.00 288.00 0.00 -0.41 0.26
84.00 288.00 0.00 -0.41 0.26
85.00 288.00 0.00 -0.40 0.26
86.00 288.00 0.00 -0.40 0.26
87.00 288.00 0.00 -0.40 0.26
88.00 288.00 0.00 -0.40 0.26
89.00 288.00 0.00 -0.40 0.26
90.00 288.00 0.00 -0.39 0.26
91.00 288.00 0.00 -0.39 0.26
92.00 288.00 0.00 -0.39 0.26
93.00 288.00 0.00 -0.39 0.26
94.00 288.00 0.00 -0.38 0.26
95.00 288.00 0.00 -0.38 0.26
96.00 288.00 0.00 -0.38 0.26
97.00 288.00 0.00 -0.37 0.26
98.00 288.00 0.00 -0.37 0.26
99.00 288.00 0.00 -0.36 0.26
100.00 288.00 0.00 -0.36 0.26
101.00 288.00 0.00 -0.35 0.26
102.00 288.00 0.00 -0.35 0.26
103.00 288.00 0.00 -0.34 0.26
104.00 288.00 0.00 -0.34 0.26
105.00 288.00 0.00 -0.33 0.26
106.00 288.00 0.00 -0.33 0.26
107.00 288.00 0.00 -0.32 0.26
108.00 288.00 0.00 -0.32 0.26
109.00 288.00 0.00 -0.31 0.26
110.00 288.00 0.00 -0.30 0.25
111.00 288.00 0.00 -0.30 0.25
112.00 288.00 0.00 -0.29 0.25
113.00 288.00 0.00 -0.28 0.25
114.00 288.00 0.00 -0.28 0.25
115.00 288.00 0.00 -0.27 0.25
116.00 288.00 0.00 -0.26 0.25
117.00 288.00 0.00 -0.25 0.25
118.00 288.00 0.00 -0.25 0.25
119.00 288.00 0.00 -0.24 0.25
120.00 288.00 0.00 -0.23 0.25
121.00 288.00 0.00 -0.22 0.25
122.00 288.00 0.00 -0.21 0.25
123.00 288.00 0.00 -0.20 0.25
124.00 288.00 0.00 -0.19 0.25
125.00 288.00 0.00 -0.19 0.25
126.00 288.00 0.00 -0.18 0.25
127.00 288.00 0.00 -0.17 0.25
128.00 288.00 0.00 -0.16 0.25
129.00 288.00 0.00 -0.15 0.25
130.00 288.00 0.00 -0.14 0.25
131.00 288.00 0.00 -0.13 0.25
132.00 288.00 0.00 -0.11 0.25
133.00 288.00 0.00 -0.10 0.25
134.00 288.00 0.00 -0.09 0.25
135.00 288.00 0.00 -0.08 0.25
136.00 288.00 0.00 -0.07 0.25
137.00 288.00 0.00 -0.06 0.25
138.00 288.00 0.00 -0.05 0.25
139.00 288.00 0.00 -0.04 0.25
140.00 288.00 0.00 -0.02 0.24
141.00 288.00 0.00 -0.01 0.24
142.00 288.00 0.00 0.00 0.24
143.00 288.00 0.00 0.01 0.24
144.00 288.00 0.00 0.03 0.24
145.00 288.00 0.00 0.04 0.24
146.00 288.00 0.00 0.05 0.24
147.00 288.00 0.00 0.07 0.24
148.00 288.00 0.00 0.08 0.24
149.00 288.00 0.00 0.10 0.24
150.00 288.00 0.00 0.11 0.24
151.00 288.00 0.00 0.12 0.24
152.00 288.00 0.00 0.14 0.24
153.00 288.00 0.00 0.15 0.24
154.00 288.00 0.00 0.17 0.24
155.00 288.00 0.00 0.18 0.24
156.00 288.00 0.00 0.20 0.24
157.00 288.00 0.00 0.21 0.24
158.00 288.00 0.00 0.23 0.24
159.00 288.00 0.00 0.25 0.24
160.00 288.00 0.00 0.26 0.23
161.00 288.00 0.00 0.28 0.23
162.00 288.00 0.00 0.29 0.23
163.00 288.00 0.00 0.31 0.23
164.00 288.00 0.00 0.33 0.23
165.00 288.00 0.00 0.35 0.23
166.00 288.00 0.00 0.36 0.23
167.00 288.00 0.00 0.38 0.23
168.00 288.00 0.00 0.40 0.23
169.00 288.00 0.00 0.42 0.23
170.00 288.00 0.00 0.43 0.23
171.00 288.00 0.00 0.45 0.23
172.00 288.00 0.00 0.47 0.23
173.00 288.00 0.00 0.49 0.23
174.00 288.00 0.00 0.51 0.23
175.00 288.00 0.00 0.53 0.23
176.00 288.00 0.00 0.55 0.22
177.00 288.00 0.00 0.57 0.22
178.00 288.00 0.00 0.58 0.22
179.00 288.00 0.00 0.60 0.22
180.00 288.00 0.00 0.62 0.22
181.00 288.00 0.00 0.64 0.22
182.00 288.00 0.00 0.67 0.22
183.00 288.00 0.00 0.69 0.22
184.00 288.00 0.00 0.71 0.22
185.00 288.00 0.00 0.73 0.22
186.00 288.00 0.00 0.75 0.22
187.00 288.00 0.00 0.77 0.22
188.00 288.00 0.00 0.79 0.22
189.00 288.00 0.00 0.81 0.22
190.00 288.00 0.00 0.84 0.21
191.00 288.00 0.00 0.86 0.21
192.00 288.00 0.00 0.88 0.21
193.00 288.00 0.00 0.90 0.21
194.00 288.00 0.00 0.92 0.21
195.00 288.00 0.00 0.95 0.21
196.00 288.00 0.00 0.97 0.21
197.00 288.00 0.00 0.99 0.21
198.00 288.00 0.00 1.02 0.21
199.00 288.00 0.00 1.04 0.21
200.00 288.00 0.00 1.07 0.21
201.00 288.00 0.00 1.09 0.21
202.00 288.00 0.00 1.11 0.21
203.00 288.00 0.00 1.14 0.20
204.00 288.00 0.00 1.16 0.20
205.00 288.00 0.00 1.19 0.20
206.00 288.00 0.00 1.21 0.20
207.00 288.00 0.00 1.24 0.20
208.00 288.00 0.00 1.26 0.20
209.00 288.00 0.00 1.29 0.20
210.00 288.00 0.00 1.31 0.20
211.00 288.00 0.00 1.34 0.20
212.00 288.00 0.00 1.37 0.20
213.00 288.00 0.00 1.39 0.20
214.00 288.00 0.00 1.42 0.19
215.00 288.00 0.00 1.45 0.19
216.00 288.00 0.00 1.47 0.19
217.00 288.00 0.00 1.50 0.19
218.00 288.00 0.00 1.53 0.19
219.00 288.00 0.00 1.56 0.19
220.00 288.00 0.00 1.58 0.19
221.00 288.00 0.00 1.61 0.19
222.00 288.00 0.00 1.64 0.19
223.00 288.00 0.00 1.67 0.19
224.00 288.00 0.00 1.70 0.18
225.00 288.00 0.00 1.73 0.18
226.00 288.00 0.00 1.75 0.18
227.00 288.00 0.00 1.78 0.18
228.00 288.00 0.00 1.81 0.18
229.00 288.00 0.00 1.84 0.18
230.00 288.00 0.00 1.87 0.18
231.00 288.00 0.00 1.90 0.18
232.00 288.00 0.00 1.93 0.18
233.00 288.00 0.00 1.96 0.18
234.00 288.00 0.00 1.99 0.17
235.00 288.00 0.00 2.02 0.17
236.00 288.00 0.00 2.05 0.17
237.00 288.00 0.00 2.09 0.17
238.00 288.00 0.00 2.12 0.17
239.00 288.00 0.00 2.15 0.17
240.00 288.00 0.00 2.18 0.17
241.00 288.00 0.00 2.21 0.17
242.00 288.00 0.00 2.24 0.17
243.00 288.00 0.00 2.28 0.16
244.00 288.00 0.00 2.31 0.16
245.00 288.00 0.00 2.34 0.16
246.00 288.00 0.00 2.37 0.16
247.00 288.00 0.00 2.41 0.16
248.00 288.00 0.00 2.44 0.16
249.00 288.00 0.00 2.47 0.16
250.00 288.00 0.00 2.51 0.16
251.00 288.00 0.00 2.54 0.16
252.00 288.00 0.00 2.57 0.15
253.00 288.00 0.00 2.61 0.15
254.00 288.00 0.00 2.64 0.15
255.00 288.00 0.00 2.68 0.15
256.00 288.00 0.00 2.71 0.15
257.00 288.00 0.00 2.75 0.15
258.00 288.00 0.00 2.78 0.15
259.00 288.00 0.00 2.82 0.15
260.00 288.00 0.00 2.85 0.14
261.00 288.00 0.00 2.89 0.14
262.00 288.00 0.00 2.92 0.14
263.00 288.00 0.00 2.96 0.14
264.00 288.00 0.00 2.99 0.14
265.00 288.00 0.00 3.03 0.14
266.00 288.00 0.00 3.06 0.14
267.00 288.00 0.00 3.10 0.14
268.00 288.00 0.00 3.13 0.13
269.00 288.00 0.00 3.17 0.13
270.00 288.00 0.00 3.20 0.13
271.00 288.00 0.00 3.24 0.13
272.00 288.00 0.00 3.27 0.13
273.00 288.00 0.00 3.31 0.13
274.00 288.00 0.00 3.34 0.13
275.00 288.00 0.00 3.38 0.13
276.00 288.00 0.00 3.41 0.12
277.00 288.00 0.00 3.45 0.12
278.00 288.00 0.00 3.48 0.12
279.00 288.00 0.00 3.52 0.12
280.00 288.00 0.00 3.55 0.12
281.00 288.00 0.00 3.59 0.12
282.00 288.00 0.00 3.62 0.12
283.00 288.00 0.00 3.66 0.12
284.00 288.00 0.00 3.69 0.11
285.00 288.00 0.00 3.73 0.11
286.00 288.00 0.00 3.76 0.11
287.00 288.00 0.00 3.80 0.11
288.00 288.00 0.00 3.83 0.11
289.00 288.00 0.00 3.87 0.11
290.00 288.00 0.00 3.90 0.11
291.00 288.00 0.00 3.94 0.11
292.00 288.00 0.00 3.97 0.11
293.00 288.00 0.00 4.01 0.10
294.00 288.00 0.00 4.04 0.10
295.00 288.00 0.00 4.08 0.10
296.00 288.00 0.00 4.11 0.10
297.00 288.00 0.00 4.15 0.10
298.00 288.00 0.00 4.18 0.10
299.00 288.00 0.00 4.22 0.10
300.00 288.00 0.00 4.25 0.10
301.00 288.00 0.00 4.29 0.09
302.00 288.00 0.00 4.32 0.09
303.00 288.00 0.00 4.36 0.09
304.00 288.00 0.00 4.39 0.09
305.00 288.00 0.00 4.43 0.09
306.00 288.00 0.00 4.46 0.09
307.00 288.00 0.00 4.50 0.09
308.00 288.00 0.00 4.53 0.09
309.00 288.00 0.00 4.57 0.08
310.00 288.00 0.00 4.60 0.08
311.00 288.00 0.00 4.64 0.08
312.00 288.00 0.00 4.67 0.08
313.00 288.00 0.00 4.71 0.08
314.00 288.00 0.00 4.74 0.08
315.00 288.00 0.00 4.78 0.08
316.00 288.00 0.00 4.81 0.08
317.00 288.00 0.00 4.85 0.07
318.00 288.00 0.00 4.88 0.07
319.00 288.00 0.00 4.92 0.07
320.00 288.00 0.00 4.95 0.07
321.00 288.00 0.00 4.99 0.07
322.00 288.00 0.00 5.02 0.07
323.00 288.00 0.00 5.06 0.07
324.00 288.00 0.00 5.09 0.07
325.00 288.00 0.00 5.13 0.06
326.00 288.00 0.00 5.16 0.06
327.00 288.00 0.00 5.20 0.06
328.00 288.00 0.00 5.23 0.06
329.00 288.00 0.00 5.27 0.06
330.00 288.00 0.00 5.30 0.06
331.00 288.00 0.00 5.34 0.06
332.00 288.00 0.00 5.37 0.06
333.00 288.00 0.00 5.41 0.05
334.00 288.00 0.00 5.44 0.05
335.00 288.00 0.00 5.48 0.05
336.00 288.00 0.00 5.51 0.05
337.00 288.00 0.00 5.55 0.05
338.00 288.00 0.00 5.58 0.05
339.00 288.00 0.00 5.62 0.05
340.00 288.00 0.00 5.65 0.05
341.00 288.00 0.00 5.69 0.05
342.00 288.00 0.00 5.72 0.04
343.00 288.00 0.00 5.76 0.04
344.00 288.00 0.00 5.79 0.04
345.00 288.00 0.00 5.83 0.04
346.00 288.00 0.00 5.86 0.04
347.00 288.00 0.00 5.90 0.04
348.00 288.00 0.00 5.93 0.04
349.00 288.00 0.00 5.97 0.04
350.00 288.00 0.00 6.00 0.03
351.00 288.00 0.00 6.04 0.03
352.00 288.00 0.00 6.07 0.03
353.00 288.00 0.00 6.11 0.03
354.00 288.00 0.00 6.14 0.03
355.00 288.00 0.00 6.18 0.03
356.00 288.00 0.00 6.21 0.03
357.00 288.00 0.00 6.25 0.03
358.00 288.00 0.00 6.28 0.02
359.00 288.00 0.00 6.32 0.02
360.00 288.00 0.00 6.35 0.02
361.00 288.00 0.00 6.39 0.02
362.00 288.00 0.00 6.42 0.02
363.00 288.00 0.00 6.46 0.02
364.00 288.00 0.00 6.49 0.02
365.00 288.00 0.00 6.53 0.02
366.00 288.00 0.00 6.56 0.01
367.00 288.00 0.00 6.60 0.01
368.00 288.00 0.00 6.63 0.01
369.00 288.00 0.00 6.67 0.01
370.00 288.00 0.00 6.70 0.01
371.00 288.00 0.00 6.74 0.01
372.00 288.00 0.00 6.77 0.01
373.00 288.00 0.00 6.81 0.01
374.00 288.00 0.00 6.84 0.00
375.00 288.00 0.00 6.88 0.00
376.00 288.00 0.00 6.91 0.00
377.00 288.00 0.00 6.95 0.00
378.00 288.00 0.00 6.98 0.00
379.00 288.00 0.00 7.02 -0.00
380.00 288.00 0.00 7.05 -0.00
381.00 288.00 0.00 7.09 -0.00
382.00 288.00 0.00 7.12 -0.00
383.00 288.00 0.00 7.16 -0.01
384.00 288.00 0.00 7.19 -0.01
385.00 288.00 0.00 7.23 -0.01
386.00 288.00 0.00 7.26 -0.01
387.00 288.00 0.00 7.30 -0.01
388.00 288.00 0.00 7.33 -0.01
389.00 288.00 0.00 7.37 -0.01
390.00 288.00 0.00 7.40 -0.01
391.00 288.00 0.00 7.44 -0.02
392.00 288.00 0.00 7.47 -0.02
393.00 288.00 0.00 7.51 -0.02
394.00 288.00 0.00 7.54 -0.02
395.00 288.00 0.00 7.58 -0.02
396.00 288.00 0.00 7.61 -0.02
397.00 288.00 0.00 7.65 -0.02
398.00 288.00 0.00 7.68 -0.02
399.00 288.00 0.00 7.72 -0.03
400.00 288.00 0.00 7.75 -0.03
401.00 288.00 0.00 7.79 -0.03
402.00 288.00 0.00 7.82 -0.03
403.00 288.00 0.00 7.86 -0.03
404.00 288.00 0.00 7.89 -0.03
405.00 288.00 0.00 7.93 -0.03
406.00 288.00 0.00 7.96 -0.03
407.00 288.00 0.00 8.00 -0.04
408.00 288.00 0.00 8.03 -0.04
409.00 288.00 0.00 8.07 -0.04
410.00 288.00 0.00 8.10 -0.04
411.00 288.00 0.00 8.14 -0.04
412.00 288.00 0.00 8.17 -0.04
413.00 288.00 0.00 8.21 -0.04
414.00 288.00 0.00 8.24 -0.04
415.00 288.00 0.00 8.28 -0.05
416.00 288.00 0.00 8.31 -0.05
417.00 288.00 0.00 8.35 -0.05
418.00 288.00 0.00 8.38 -0.05
419.00 288.00 0.00 8.42 -0.05
420.00 288.00 0.00 8.45 -0.05
421.00 288.00 0.00 8.49 -0.05
422.00 288.00 0.00 8.52 -0.05
423.00 288.00 0.00 8.56 -0.05
424.00 288.00 0.00 8.59 -0.06
425.00 288.00 0.00 8.63 -0.06
426.00 288.00 0.00 8.66 -0.06
427.00 288.00 0.00 8.70 -0.06
428.00 288.00 0.00 8.73 -0.06
429.00 288.00 0.00 8.77 -0.06
430.00 288.00 0.00 8.80 -0.06
431.00 288.00 0.00 8.84 -0.06
432.00 288.00 0.00 8.87 -0.07
433.00 288.00 0.00 8.91 -0.07
434.00 288.00 0.00 8.94 -0.07
435.00 288.00 0.00 8.98 -0.07
436.00 288.00 0.00 9.01 -0.07
437.00 288.00 0.00 9.05 -0.07
438.00 288.00 0.00 9.08 -0.07
439.00 288.00 0.00 9.12 -0.07
440.00 288.00 0.00 9.15 -0.08
441.00 288.00 0.00 9.19 -0.08
442.00 288.00 0.00 9.22 -0.08
443.00 288.00 0.00 9.26 -0.08
444.00 288.00 0.00 9.29 -0.08
445.00 288.00 0.00 9.33 -0.08
446.00 288.00 0.00 9.36 -0.08
447.00 288.00 0.00 9.40 -0.08
448.00 288.00 0.00 9.43 -0.09
449.00 288.00 0.00 9.47 -0.09
450.00 288.00 0.00 9.50 -0.09
451.00 288.00 0.00 9.54 -0.09
452.00 288.00 0.00 9.57 -0.09
453.00 288.00 0.00 9.61 -0.09
454.00 288.00 0.00 9.64 -0.09
455.00 288.00 0.00 9.68 -0.09
456.00 288.00 0.00 9.71 -0.10
457.00 288.00 0.00 9.75 -0.10
458.00 288.00 0.00 9.78 -0.10
459.00 288.00 0.00 9.82 -0.10
460.00 288.00 0.00 9.85 -0.10
461.00 288.00 0.00 9.89 -0.10
462.00 288.00 0.00 9.92 -0.10
463.00 288.00 0.00 9.96 -0.10
464.00 288.00 0.00 9.99 -0.11
465.00 288.00 0.00 10.03 -0.11
466.00 288.00 0.00 10.06 -0.11
467.00 288.00 0.00 10.10 -0.11
468.00 288.00 0.00 10.13 -0.11
469.00 288.00 0.00 10.17 -0.11
470.00 288.00 0.00 10.20 -0.11
471.00 288.00 0.00 10.24 -0.11
472.00 288.00 0.00 10.27 -0.11
473.00 288.00 0.00 10.31 -0.12
474.00 288.00 0.00 10.34 -0.12
475.00 288.00 0.00 10.38 -0.12
476.00 288.00 0.00 10.41 -0.12
477.00 288.00 0.00 10.45 -0.12
478.00 288.00 0.00 10.48 -0.12
479.00 288.00 0.00 10.52 -0.12
480.00 288.00 0.00 10.55 -0.12
481.00 288.00 0.00 10.59 -0.13
482.00 288.00 0.00 10.62 -0.13
483.00 288.00 0.00 10.66 -0.13
484.00 288.00 0.00 10.69 -0.13
485.00 288.00 0.00 10.73 -0.13
486.00 288.00 0.00 10.76 -0.13
487.00 288.00 0.00 10.80 -0.13
488.00 288.00 0.00 10.83 -0.13
489.00 288.00 0.00 10.87 -0.14
490.00 288.00 0.00 10.90 -0.14
491.00 288.00 0.00 10.94 -0.14
492.00 288.00 0.00 10.97 -0.14
493.00 288.00 0.00 11.01 -0.14
494.00 288.00 0.00 11.04 -0.14
495.00 288.00 0.00 11.08 -0.14
496.00 288.00 0.00 11.11 -0.14
497.00 288.00 0.00 11.15 -0.15
498.00 288.00 0.00 11.18 -0.15
499.00 288.00 0.00 11.22 -0.15
500.00 288.00 0.00 11.25 -0.15
501.00 288.00 0.00 11.29 -0.15
502.00 288.00 0.00 11.32 -0.15
503.00 288.00 0.00 11.36 -0.15
504.00 288.00 0.00 11.39 -0.15
505.00 288.00 0.00 11.43 -0.16
506.00 288.00 0.00 11.46 -0.16
507.00 288.00 0.00 11.49 -0.16
508.00 288.00 0.00 11.53 -0.16
509.00 288.00 0.00 11.56 -0.16
510.00 288.00 0.00 11.59 -0.16
511.00 288.00 0.00 11.63 -0.16
512.00 288.00 0.00 11.66 -0.16
513.00 288.00 0.00 11.69 -0.16
514.00 288.00 0.00 11.72 -0.17
515.00 288.00 0.00 11.76 -0.17
516.00 288.00 0.00 11.79 -0.17
517.00 288.00 0.00 11.82 -0.17
518.00 288.00 0.00 11.85 -0.17
519.00 288.00 0.00 11.88 -0.17
520.00 288.00 0.00 11.91 -0.17
521.00 288.00 0.00 11.95 -0.17
522.00 288.00 0.00 11.98 -0.17
523.00 288.00 0.00 12.01 -0.18
524.00 288.00 0.00 12.04 -0.18
525.00 288.00 0.00 12.07 -0.18
526.00 288.00 0.00 12.10 -0.18
527.00 288.00 0.00 12.13 -0.18
528.00 288.00 0.00 12.16 -0.18
529.00 288.00 0.00 12.19 -0.18
530.00 288.00 0.00 12.22 -0.18
531.00 288.00 0.00 12.25 -0.18
532.00 288.00 0.00 12.27 -0.18
533.00 288.00 0.00 12.30 -0.19
534.00 288.00 0.00 12.33 -0.19
535.00 288.00 0.00 12.36 -0.19
536.00 288.00 0.00 12.39 -0.19
537.00 288.00 0.00 12.42 -0.19
538.00 288.00 0.00 12.44 -0.19
539.00 288.00 0.00 12.47 -0.19
540.00 288.00 0.00 12.50 -0.19
541.00 288.00 0.00 12.53 -0.19
542.00 288.00 0.00 12.55 -0.19
543.00 288.00 0.00 12.58 -0.20
544.00 288.00 0.00 12.61 -0.20
545.00 288.00 0.00 12.63 -0.20
546.00 288.00 0.00 12.66 -0.20
547.00 288.00 0.00 12.69 -0.20
548.00 288.00 0.00 12.71 -0.20
549.00 288.00 0.00 12.74 -0.20
550.00 288.00 0.00 12.76 -0.20
551.00 288.00 0.00 12.79 -0.20
552.00 288.00 0.00 12.81 -0.20
553.00 288.00 0.00 12.84 -0.20
554.00 288.00 0.00 12.86 -0.21
555.00 288.00 0.00 12.89 -0.21
556.00 288.00 0.00 12.91 -0.21
557.00 288.00 0.00 12.93 -0.21
558.00 288.00 0.00 12.96 -0.21
559.00 288.00 0.00 12.98 -0.21
560.00 288.00 0.00 13.01 -0.21
561.00 288.00 0.00 13.03 -0.21
562.00 288.00 0.00 13.05 -0.21
563.00 288.00 0.00 13.08 -0.21
564.00 288.00 0.00 13.10 -0.21
565.00 288.00 0.00 13.12 -0.21
566.00 288.00 0.00 13.14 -0.21
567.00 288.00 0.00 13.16 -0.22
568.00 288.00 0.00 13.19 -0.22
569.00 288.00 0.00 13.21 -0.22
570.00 288.00 0.00 13.23 -0.22
571.00 288.00 0.00 13.25 -0.22
572.00 288.00 0.00 13.27 -0.22
573.00 288.00 0.00 13.29 -0.22
574.00 288.00 0.00 13.31 -0.22
575.00 288.00 0.00 13.33 -0.22
576.00 288.00 0.00 13.36 -0.22
577.00 288.00 0.00 13.38 -0.22
578.00 288.00 0.00 13.40 -0.22
579.00 288.00 0.00 13.42 -0.22
580.00 288.00 0.00 13.43 -0.22
581.00 288.00 0.00 13.45 -0.23
582.00 288.00 0.00 13.47 -0.23
583.00 288.00 0.00 13.49 -0.23
584.00 288.00 0.00 13.51 -0.23
585.00 288.00 0.00 13.53 -0.23
586.00 288.00 0.00 13.55 -0.23
587.00 288.00 0.00 13.57 -0.23
588.00 288.00 0.00 13.58 -0.23
589.00 288.00 0.00 13.60 -0.23
590.00 288.00 0.00 13.62 -0.23
591.00 288.00 0.00 13.64 -0.23
592.00 288.00 0.00 13.65 -0.23
593.00 288.00 0.00 13.67 -0.23
594.00 288.00 0.00 13.69 -0.23
595.00 288.00 0.00 13.71 -0.23
596.00 288.00 0.00 13.72 -0.23
597.00 288.00 0.00 13.74 -0.24
598.00 288.00 0.00 13.75 -0.24
599.00 288.00 0.00 13.77 -0.24
600.00 288.00 0.00 13.79 -0.24
601.00 288.00 0.00 13.80 -0.24
602.00 288.00 0.00 13.82 -0.24
603.00 288.00 0.00 13.83 -0.24
604.00 288.00 0.00 13.85 -0.24
605.00 288.00 0.00 13.86 -0.24
606.00 288.00 0.00 13.88 -0.24
607.00 288.00 0.00 13.89 -0.24
608.00 288.00 0.00 13.90 -0.24
609.00 288.00 0.00 13.92 -0.24
610.00 288.00 0.00 13.93 -0.24
611.00 288.00 0.00 13.95 -0.24
612.00 288.00 0.00 13.96 -0.24
613.00 288.00 0.00 13.97 -0.24
614.00 288.00 0.00 13.99 -0.24
615.00 288.00 0.00 14.00 -0.24
616.00 288.00 0.00 14.01 -0.24
617.00 288.00 0.00 14.02 -0.25
618.00 288.00 0.00 14.04 -0.25
619.00 288.00 0.00 14.05 -0.25
620.00 288.00 0.00 14.06 -0.25
621.00 288.00 0.00 14.07 -0.25
622.00 288.00 0.00 14.08 -0.25
623.00 288.00 0.00 14.09 -0.25
624.00 288.00 0.00 14.10 -0.25
625.00 288.00 0.00 14.11 -0.25
626.00 288.00 0.00 14.13 -0.25
627.00 288.00 0.00 14.14 -0.25
628.00 288.00 0.00 14.15 -0.25
629.00 288.00 0.00 14.16 -0.25
630.00 288.00 0.00 14.17 -0.25
631.00 288.00 0.00 14.18 -0.25
632.00 288.00 0.00 14.19 -0.25
633.00 288.00 0.00 14.19 -0.25
634.00 288.00 0.00 14.20 -0.25
635.00 288.00 0.00 14.21 -0.25
636.00 288.00 0.00 14.22 -0.25
637.00 288.00 0.00 14.23 -0.25
638.00 288.00 0.00 14.24 -0.25
639.00 288.00 0.00 14.25 -0.25
640.00 288.00 0.00 14.25 -0.25
641.00 288.00 0.00 14.26 -0.25
642.00 288.00 0.00 14.27 -0.25
643.00 288.00 0.00 14.28 -0.25
644.00 288.00 0.00 14.28 -0.25
645.00 288.00 0.00 14.29 -0.25
646.00 288.00 0.00 14.30 -0.25
647.00 288.00 0.00 14.30 -0.26
648.00 288.00 0.00 14.31 -0.26
649.00 288.00 0.00 14.32 -0.26
650.00 288.00 0.00 14.32 -0.26
651.00 288.00 0.00 14.33 -0.26
652.00 288.00 0.00 14.33 -0.26
653.00 288.00 0.00 14.34 -0.26
654.00 288.00 0.00 14.34 -0.26
655.00 288.00 0.00 14.35 -0.26
656.00 288.00 0.00 14.35 -0.26
657.00 288.00 0.00 14.36 -0.26
658.00 288.00 0.00 14.36 -0.26
659.00 288.00 0.00 14.37 -0.26
660.00 288.00 0.00 14.37 -0.26
661.00 288.00 0.00 14.38 -0.26
662.00 288.00 0.00 14.38 -0.26
663.00 288.00 0.00 14.38 -0.26
664.00 288.00 0.00 14.39 -0.26
665.00 288.00 0.00 14.39 -0.26
666.00 288.00 0.00 14.39 -0.26
667.00 288.00 0.00 14.39 -0.26
668.00 288.00 0.00 14.40 -0.26
669.00 288.00 0.00 14.40 -0.26
670.00 288.00 0.00 14.40 -0.26
671.00 288.00 0.00 14.40 -0.26
672.00 288.00 0.00 14.40 -0.26
673.00 288.00 0.00 14.41 -0.26
674.00 288.00 0.00 14.41 -0.26
675.00 288.00 0.00 14.41 -0.26
676.00 288.00 0.00 14.41 -0.26
677.00 288.00 0.00 14.41 -0.26
678.00 288.00 0.00 14.41 -0.26
679.00 288.00 0.00 14.41 -0.26
680.00 288.00 0.00 14.41 -0.26
681.00 288.00 0.00 14.41 -0.26
682.00 288.00 0.00 14.41 -0.26
683.00 288.00 0.00 14.41 -0.26
684.00 288.00 0.00 14.41 -0.26
685.00 288.00 0.00 14.41 -0.26
686.00 288.00 0.00 14.41 -0.26
687.00 288.00 0.00 14.41 -0.26
688.00 288.00 0.00 14.41 -0.26
689.00 288.00 0.00 14.41 -0.26
690.00 288.00 0.00 14.41 -0.26
691.00 288.00 0.00 14.41 -0.26
692.00 288.00 0.00 14.41 -0.26
693.00 288.00 0.00 14.41 -0.26
694.00 288.00 0.00 14.41 -0.26
695.00 288.00 0.00 14.41 -0.26
696.00 288.00 0.00 14.41 -0.26
697.00 288.00 0.00 14.41 -0.26
698.00 288.00 0.00 14.41 -0.26
699.00 288.00 0.00 14.41 -0.26
700.00 288.00 0.00 14.41 -0.26
701.00 288.00 0.00 14.41 -0.26
702.00 288.00 0.00 14.41 -0.26
703.00 288.00 0.00 14.41 -0.26
704.00 288.00 0.00 14.41 -0.26
705.00 288.00 0.00 14.41 -0.26
706.00 288.00 0.00 14.41 -0.26
707.00 288.00 0.00 14.41 -0.26
708.00 288.00 0.00 14.41 -0.26
709.00 288.00 0.00 14.41 -0.26
710.00 288.00 0.00 14.41 -0.26
711.00 288.00 0.00 14.41 -0.26
712.00 288.00 0.00 14.41 -0.26
713.00 288.00 0.00 14.41 -0.26
714.00 288.00 0.00 14.41 -0.26
715.00 288.00 0.00 14.41 -0.26
716.00 288.00 0.00 14.41 -0.26
717.00 288.00 0.00 14.41 -0.26
718.00 288.00 0.00 14.41 -0.26
719.00 288.00 0.00 14.41 -0.26
720.00 288.00 0.00 14.41 -0.26
721.00 288.00 0.00 14.41 -0.26
722.00 288.00 0.00 14.41 -0.26
723.00 288.00 0.00 14.41 -0.26
724.00 288.00 0.00 14.41 -0.26
725.00 288.00 0.00 14.41 -0.26
726.00 288.00 0.00 14.41 -0.26
727.00 288.00 0.00 14.41 -0.26
728.00 288.00 0.00 14.41 -0.26
729.00 288.00 0.00 14.41 -0.26
730.00 288.00 0.00 14.41 -0.26
731.00 288.00 0.00 14.41 -0.26
732.00 288.00 0.00 14.41 -0.26
733.00 288.00 0.00 14.41 -0.26
734.00 288.00 0.00 14.41 -0.26
735.00 288.00 0.00 14.41 -0.26
736.00 288.00 0.00 14.41 -0.26
737.00 288.00 0.00 14.41 -0.26
738.00 288.00 0.00 14.41 -0.26
739.00 288.00 0.00 14.41 -0.26
740.00 288.00 0.00 14.41 -0.26
741.00 288.00 0.00 14.41 -0.26
742.00 288.00 0.00 14.41 -0.26
743.00 288.00 0.00 14.41 -0.26
744.00 288.00 0.00 14.41 -0.26
745.00 288.00 0.00 14.41 -0.26
746.00 288.00 0.00 14.41 -0.26
747.00 288.00 0.00 14.41 -0.26
748.00 288.00 0.00 14.41 -0.26
749.00 288.00 0.00 14.41 -0.26
750.00 288.00 0.00 14.41 -0.26
751.00 288.00 0.00 14.41 -0.26
752.00 288.00 0.00 14.41 -0.26
753.00 288.00 0.00 14.41 -0.26
754.00 288.00 0.00 14.41 -0.26
755.00 288.00 0.00 14.41 -0.26
756.00 288.00 0.00 14.41 -0.26
757.00 288.00 0.00 14.41 -0.26
758.00 288.00 0.00 14.41 -0.26
759.00 288.00 0.00 14.41 -0.26
760.00 288.00 0.00 14.41 -0.26
761.00 288.00 0.00 14.41 -0.26
762.00 288.00 0.00 14.41 -0.26
763.00 288.00 0.00 14.41 -0.26
764.00 288.00 0.00 14.41 -0.26
765.00 288.00 0.00 14.41 -0.26
766.00 288.00 0.00 14.41 -0.26
767.00 288.00 0.00 14.41 -0.26
768.00 288.00 0.00 14.41 -0.26
769.00 288.00 0.00 14.41 -0.26
770.00 288.00 0.00 14.41 -0.26
771.00 288.00 0.00 14.41 -0.26
772.00 288.00 0.00 14.41 -0.26
773.00 288.00 0.00 14.41 -0.26
774.00 288.00 0.00 14.41 -0.26
775.00 288.00 0.00 14.41 -0.26
776.00 288.00 0.00 14.41 -0.26
777.00 288.00 0.00 14.41 -0.26
778.00 288.00 0.00 14.41 -0.26
779.00 288.00 0.00 14.41 -0.26
780.00 288.00 0.00 14.41 -0.26
781.00 288.00 0.00 14.41 -0.26
782.00 288.00 0.00 14.41 -0.26
783.00 288.00 0.00 14.41 -0.26
784.00 288.00 0.00 14.41 -0.26
785.00 288.00 0.00 14.41 -0.26
786.00 288.00 0.00 14.41 -0.26
787.00 288.00 0.00 14.41 -0.26
788.00 288.00 0.00 14.41 -0.26
789.00 288.00 0.00 14.41 -0.26
790.00 288.00 0.00 14.41 -0.26
791.00 288.00 0.00 14.41 -0.26
792.00 288.00 0.00 14.41 -0.26
793.00 288.00 0.00 14.41 -0.26
794.00 288.00 0.00 14.41 -0.26
795.00 288.00 0.00 14.41 -0.26
796.00 288.00 0.00 14.41 -0.26
797.00 288.00 0.00 14.41 -0.26
798.00 288.00 0.00 14.41 -0.26
799.00 288.00 0.00 14.41 -0.26
800.00 288.00 0.00 14.41 -0.26
801.00 288.00 0.00 14.41 -0.26
802.00 288.00 0.00 14.41 -0.26
803.00 288.00 0.00 14.41 -0.26
804.00 288.00 0.00 14.41 -0.26
805.00 288.00 0.00 14.41 -0.26
806.00 288.00 0.00 14.41 -0.26
807.00 288.00 0.00 14.41 -0.26
808.00 288.00 0.00 14.41 -0.26
809.00 288.00 0.00 14.41 -0.26
810.00 288.00 0.00 14.41 -0.26
811.00 288.00 0.00 14.41 -0.26
812.00 288.00 0.00 14.41 -0.26
813.00 288.00 0.00 14.41 -0.26
814.00 288.00 0.00 14.41 -0.26
815.00 288.00 0.00 14.41 -0.26
816.00 288.00 0.00 14.41 -0.26
817.00 288.00 0.00 14.41 -0.26
818.00 288.00 0.00 14.41 -0.26
819.00 288.00 0.00 14.41 -0.26
820.00 288.00 0.00 14.41 -0.26
821.00 288.00 0.00 14.41 -0.26
822.00 288.00 0.00 14.41 -0.26
823.00 288.00 0.00 14.41 -0.26
824.00 288.00 0.00 14.41 -0.26
825.00 288.00 0.00 14.41 -0.26
826.00 288.00 0.00 14.41 -0.26
827.00 288.00 0.00 14.41 -0.26
828.00 288.00 0.00 14.41 -0.26
829.00 288.00 0.00 14.41 -0.26
830.00 288.00 0.00 14.41 -0.26
831.00 288.00 0.00 14.41 -0.26
