1000.00 288.00 00.00
0.00 288.00 0.00 9.12 2.53
1.00 288.00 0.00 9.12 2.53
2.00 288.00 0.00 9.12 2.53
3.00 288.00 0.00 9.12 2.53
4.00 288.00 0.00 9.12 2.53
5.00 288.00 0.00 9.12 2.53
6.00 288.00 0.00 9.12 2.53
7.00 288.00 0.00 9.12 2.53
8.00 288.00 0.00 9.12 2.53
9.00 288.00 0.00 9.12 2.53
10.00 288.00 0.00 9.12 2.53
11.00 288.00 0.00 9.12 2.53
12.00 288.00 0.00 9.12 2.53
13.00 288.00 0.00 9.12 2.53
14.00 288.00 0.00 9.12 2.53
15.00 288.00 0.00 9.12 2.53
16.00 288.00 0.00 9.12 2.53
17.00 288.00 0.00 9.12 2.53
18.00 288.00 0.00 9.12 2.53
19.00 288.00 0.00 9.12 2.53
20.00 288.00 0.00 9.12 2.53
21.00 288.00 0.00 9.12 2.53
22.00 288.00 0.00 9.12 2.53
23.00 288.00 0.00 9.12 2.53
24.00 288.00 0.00 9.12 2.53
25.00 288.00 0.00 9.12 2.53
26.00 288.00 0.00 9.12 2.53
27.00 288.00 0.00 9.12 2.53
28.00 288.00 0.00 9.12 2.53
29.00 288.00 0.00 9.12 2.53
30.00 288.00 0.00 9.12 2.53
31.00 288.00 0.00 9.12 2.53
32.00 288.00 0.00 9.12 2.53
33.00 288.00 0.00 9.12 2.53
34.00 288.00 0.00 9.12 2.53
35.00 288.00 0.00 9.12 2.53
36.00 288.00 0.00 9.12 2.53
37.00 288.00 0.00 9.12 2.53
38.00 288.00 0.00 9.12 2.53
39.00 288.00 0.00 9.12 2.53
40.00 288.00 0.00 9.12 2.53
41.00 288.00 0.00 9.12 2.53
42.00 288.00 0.00 9.12 2.53
43.00 288.00 0.00 9.12 2.53
44.00 288.00 0.00 9.12 2.53
45.00 288.00 0.00 9.12 2.53
46.00 288.00 0.00 9.12 2.53
47.00 288.00 0.00 9.12 2.53
48.00 288.00 0.00 9.12 2.53
49.00 288.00 0.00 9.12 2.53
50.00 288.00 0.00 9.12 2.53
51.00 288.00 0.00 9.12 2.53
52.00 288.00 0.00 9.12 2.53
53.00 288.00 0.00 9.12 2.53
54.00 288.00 0.00 9.12 2.53
55.00 288.00 0.00 9.12 2.53
56.00 288.00 0.00 9.12 2.53
57.00 288.00 0.00 9.12 2.53
58.00 288.00 0.00 9.12 2.53
59.00 288.00 0.00 9.12 2.53
60.00 288.00 0.00 9.12 2.53
61.00 288.00 0.00 9.12 2.53
62.00 288.00 0.00 9.12 2.53
63.00 288.00 0.00 9.12 2.53
64.00 288.00 0.00 9.12 2.53
65.00 288.00 0.00 9.12 2.53
66.00 288.00 0.00 9.12 2.53
67.00 288.00 0.00 9.12 2.53
68.00 288.00 0.00 9.12 2.53
69.00 288.00 0.00 9.12 2.53
70.00 288.00 0.00 9.12 2.53
71.00 288.00 0.00 9.12 2.53
72.00 288.00 0.00 9.12 2.53
73.00 288.00 0.00 9.12 2.53
74.00 288.00 0.00 9.12 2.53
75.00 288.00 0.00 9.12 2.53
76.00 288.00 0.00 9.12 2.53
77.00 288.00 0.00 9.12 2.53
78.00 288.00 0.00 9.12 2.53
79.00 288.00 0.00 9.12 2.53
80.00 288.00 0.00 9.12 2.53
81.00 288.00 0.00 9.12 2.53
82.00 288.00 0.00 9.12 2.53
83.00 288.00 0.00 9.12 2.53
84.00 288.00 0.00 9.12 2.53
85.00 288.00 0.00 9.12 2.53
86.00 288.00 0.00 9.12 2.53
87.00 288.00 0.00 9.11 2.52
88.00 288.00 0.00 9.11 2.52
89.00 288.00 0.00 9.11 2.52
90.00 288.00 0.00 9.11 2.52
91.00 288.00 0.00 9.11 2.52
92.00 288.00 0.00 9.11 2.52
93.00 288.00 0.00 9.11 2.52
94.00 288.00 0.00 9.11 2.52
95.00 288.00 0.00 9.11 2.52
96.00 288.00 0.00 9.11 2.52
97.00 288.00 0.00 9.11 2.51
98.00 288.00 0.00 9.10 2.51
99.00 288.00 0.00 9.10 2.51
100.00 288.00 0.00 9.10 2.51
101.00 288.00 0.00 9.10 2.51
102.00 288.00 0.00 9.10 2.51
103.00 288.00 0.00 9.10 2.51
104.00 288.00 0.00 9.10 2.50
105.00 288.00 0.00 9.10 2.50
106.00 288.00 0.00 9.09 2.50
107.00 288.00 0.00 9.09 2.50
108.00 288.00 0.00 9.09 2.50
109.00 288.00 0.00 9.09 2.49
110.00 288.00 0.00 9.09 2.49
111.00 288.00 0.00 9.08 2.49
112.00 288.00 0.00 9.08 2.49
113.00 288.00 0.00 9.08 2.49
114.00 288.00 0.00 9.08 2.48
115.00 288.00 0.00 9.08 2.48
116.00 288.00 0.00 9.07 2.48
117.00 288.00 0.00 9.07 2.48
118.00 288.00 0.00 9.07 2.47
119.00 288.00 0.00 9.07 2.47
120.00 288.00 0.00 9.07 2.47
121.00 288.00 0.00 9.06 2.47
122.00 288.00 0.00 9.06 2.46
123.00 288.00 0.00 9.06 2.46
124.00 288.00 0.00 9.06 2.46
125.00 288.00 0.00 9.05 2.45
126.00 288.00 0.00 9.05 2.45
127.00 288.00 0.00 9.05 2.45
128.00 288.00 0.00 9.04 2.44
129.00 288.00 0.00 9.04 2.44
130.00 288.00 0.00 9.04 2.44
131.00 288.00 0.00 9.04 2.43
132.00 288.00 0.00 9.03 2.43
133.00 288.00 0.00 9.03 2.43
134.00 288.00 0.00 9.03 2.42
135.00 288.00 0.00 9.02 2.42
136.00 288.00 0.00 9.02 2.42
137.00 288.00 0.00 9.02 2.41
138.00 288.00 0.00 9.01 2.41
139.00 288.00 0.00 9.01 2.40
140.00 288.00 0.00 9.01 2.40
141.00 288.00 0.00 9.00 2.40
142.00 288.00 0.00 9.00 2.39
143.00 288.00 0.00 9.00 2.39
144.00 288.00 0.00 8.99 2.38
145.00 288.00 0.00 8.99 2.38
146.00 288.00 0.00 8.98 2.37
147.00 288.00 0.00 8.98 2.37
148.00 288.00 0.00 8.98 2.37
149.00 288.00 0.00 8.97 2.36
150.00 288.00 0.00 8.97 2.36
151.00 288.00 0.00 8.96 2.35
152.00 288.00 0.00 8.96 2.35
153.00 288.00 0.00 8.96 2.34
154.00 288.00 0.00 8.95 2.34
155.00 288.00 0.00 8.95 2.33
156.00 288.00 0.00 8.94 2.33
157.00 288.00 0.00 8.94 2.32
158.00 288.00 0.00 8.93 2.32
159.00 288.00 0.00 8.93 2.31
160.00 288.00 0.00 8.93 2.31
161.00 288.00 0.00 8.92 2.30
162.00 288.00 0.00 8.92 2.29
163.00 288.00 0.00 8.91 2.29
164.00 288.00 0.00 8.91 2.28
165.00 288.00 0.00 8.90 2.28
166.00 288.00 0.00 8.90 2.27
167.00 288.00 0.00 8.89 2.27
168.00 288.00 0.00 8.89 2.26
169.00 288.00 0.00 8.88 2.25
170.00 288.00 0.00 8.88 2.25
171.00 288.00 0.00 8.87 2.24
172.00 288.00 0.00 8.87 2.24
173.00 288.00 0.00 8.86 2.23
174.00 288.00 0.00 8.85 2.22
175.00 288.00 0.00 8.85 2.22
176.00 288.00 0.00 8.84 2.21
177.00 288.00 0.00 8.84 2.20
178.00 288.00 0.00 8.83 2.20
179.00 288.00 0.00 8.83 2.19
180.00 288.00 0.00 8.82 2.18
181.00 288.00 0.00 8.82 2.18
182.00 288.00 0.00 8.81 2.17
183.00 288.00 0.00 8.80 2.16
184.00 288.00 0.00 8.80 2.16
185.00 288.00 0.00 8.79 2.15
186.00 288.00 0.00 8.79 2.14
187.00 288.00 0.00 8.78 2.14
188.00 288.00 0.00 8.77 2.13
189.00 288.00 0.00 8.77 2.12
190.00 288.00 0.00 8.76 2.11
191.00 288.00 0.00 8.76 2.11
192.00 288.00 0.00 8.75 2.10
193.00 288.00 0.00 8.74 2.09
194.00 288.00 0.00 8.74 2.08
195.00 288.00 0.00 8.73 2.08
196.00 288.00 0.00 8.72 2.07
197.00 288.00 0.00 8.72 2.06
198.00 288.00 0.00 8.71 2.05
199.00 288.00 0.00 8.70 2.05
200.00 288.00 0.00 8.70 2.04
201.00 288.00 0.00 8.69 2.03
202.00 288.00 0.00 8.68 2.02
203.00 288.00 0.00 8.67 2.01
204.00 288.00 0.00 8.67 2.00
205.00 288.00 0.00 8.66 2.00
206.00 288.00 0.00 8.65 1.99
207.00 288.00 0.00 8.65 1.98
208.00 288.00 0.00 8.64 1.97
209.00 288.00 0.00 8.63 1.96
210.00 288.00 0.00 8.62 1.95
211.00 288.00 0.00 8.62 1.94
212.00 288.00 0.00 8.61 1.94
213.00 288.00 0.00 8.60 1.93
214.00 288.00 0.00 8.59 1.92
215.00 288.00 0.00 8.59 1.91
216.00 288.00 0.00 8.58 1.90
217.00 288.00 0.00 8.57 1.89
218.00 288.00 0.00 8.56 1.88
219.00 288.00 0.00 8.56 1.87
220.00 288.00 0.00 8.55 1.86
221.00 288.00 0.00 8.54 1.85
222.00 288.00 0.00 8.53 1.84
223.00 288.00 0.00 8.52 1.83
224.00 288.00 0.00 8.52 1.82
225.00 288.00 0.00 8.51 1.82
226.00 288.00 0.00 8.50 1.81
227.00 288.00 0.00 8.49 1.80
228.00 288.00 0.00 8.48 1.79
229.00 288.00 0.00 8.47 1.78
230.00 288.00 0.00 8.47 1.77
231.00 288.00 0.00 8.46 1.76
232.00 288.00 0.00 8.45 1.75
233.00 288.00 0.00 8.44 1.73
234.00 288.00 0.00 8.43 1.72
235.00 288.00 0.00 8.42 1.71
236.00 288.00 0.00 8.41 1.70
237.00 288.00 0.00 8.40 1.69
238.00 288.00 0.00 8.40 1.68
239.00 288.00 0.00 8.39 1.67
240.00 288.00 0.00 8.38 1.66
241.00 288.00 0.00 8.37 1.65
242.00 288.00 0.00 8.36 1.64
243.00 288.00 0.00 8.35 1.63
244.00 288.00 0.00 8.34 1.62
245.00 288.00 0.00 8.33 1.61
246.00 288.00 0.00 8.32 1.59
247.00 288.00 0.00 8.31 1.58
248.00 288.00 0.00 8.30 1.57
249.00 288.00 0.00 8.29 1.56
250.00 288.00 0.00 8.28 1.55
251.00 288.00 0.00 8.27 1.54
252.00 288.00 0.00 8.26 1.53
253.00 288.00 0.00 8.25 1.51
254.00 288.00 0.00 8.24 1.50
255.00 288.00 0.00 8.23 1.49
256.00 288.00 0.00 8.22 1.48
257.00 288.00 0.00 8.22 1.47
258.00 288.00 0.00 8.21 1.46
259.00 288.00 0.00 8.20 1.44
260.00 288.00 0.00 8.19 1.43
261.00 288.00 0.00 8.18 1.42
262.00 288.00 0.00 8.17 1.41
263.00 288.00 0.00 8.16 1.40
264.00 288.00 0.00 8.15 1.38
265.00 288.00 0.00 8.14 1.37
266.00 288.00 0.00 8.12 1.36
267.00 288.00 0.00 8.12 1.35
268.00 288.00 0.00 8.11 1.34
269.00 288.00 0.00 8.10 1.32
270.00 288.00 0.00 8.09 1.31
271.00 288.00 0.00 8.08 1.30
272.00 288.00 0.00 8.07 1.29
273.00 288.00 0.00 8.06 1.28
274.00 288.00 0.00 8.04 1.26
275.00 288.00 0.00 8.04 1.25
276.00 288.00 0.00 8.03 1.24
277.00 288.00 0.00 8.02 1.23
278.00 288.00 0.00 8.01 1.22
279.00 288.00 0.00 8.00 1.20
280.00 288.00 0.00 7.99 1.19
281.00 288.00 0.00 7.98 1.18
282.00 288.00 0.00 7.97 1.17
283.00 288.00 0.00 7.96 1.16
284.00 288.00 0.00 7.95 1.14
285.00 288.00 0.00 7.94 1.13
286.00 288.00 0.00 7.93 1.12
287.00 288.00 0.00 7.92 1.11
288.00 288.00 0.00 7.90 1.10
289.00 288.00 0.00 7.90 1.08
290.00 288.00 0.00 7.89 1.07
291.00 288.00 0.00 7.88 1.06
292.00 288.00 0.00 7.87 1.05
293.00 288.00 0.00 7.86 1.03
294.00 288.00 0.00 7.85 1.02
295.00 288.00 0.00 7.84 1.01
296.00 288.00 0.00 7.83 1.00
297.00 288.00 0.00 7.82 0.99
298.00 288.00 0.00 7.81 0.97
299.00 288.00 0.00 7.80 0.96
300.00 288.00 0.00 7.79 0.95
301.00 288.00 0.00 7.78 0.94
302.00 288.00 0.00 7.77 0.93
303.00 288.00 0.00 7.75 0.91
304.00 288.00 0.00 7.75 0.90
305.00 288.00 0.00 7.74 0.89
306.00 288.00 0.00 7.73 0.88
307.00 288.00 0.00 7.72 0.87
308.00 288.00 0.00 7.71 0.85
309.00 288.00 0.00 7.70 0.84
310.00 288.00 0.00 7.69 0.83
311.00 288.00 0.00 7.68 0.82
312.00 288.00 0.00 7.67 0.80
313.00 288.00 0.00 7.66 0.79
314.00 288.00 0.00 7.65 0.78
315.00 288.00 0.00 7.64 0.77
316.00 288.00 0.00 7.63 0.76
317.00 288.00 0.00 7.62 0.74
318.00 288.00 0.00 7.61 0.73
319.00 288.00 0.00 7.60 0.72
320.00 288.00 0.00 7.59 0.71
321.00 288.00 0.00 7.58 0.70
322.00 288.00 0.00 7.57 0.68
323.00 288.00 0.00 7.56 0.67
324.00 288.00 0.00 7.54 0.66
325.00 288.00 0.00 7.54 0.65
326.00 288.00 0.00 7.53 0.63
327.00 288.00 0.00 7.52 0.62
328.00 288.00 0.00 7.51 0.61
329.00 288.00 0.00 7.50 0.60
330.00 288.00 0.00 7.49 0.59
331.00 288.00 0.00 7.48 0.57
332.00 288.00 0.00 7.47 0.56
333.00 288.00 0.00 7.46 0.55
334.00 288.00 0.00 7.45 0.54
335.00 288.00 0.00 7.44 0.52
336.00 288.00 0.00 7.43 0.51
337.00 288.00 0.00 7.42 0.50
338.00 288.00 0.00 7.40 0.49
339.00 288.00 0.00 7.40 0.48
340.00 288.00 0.00 7.39 0.46
341.00 288.00 0.00 7.38 0.45
342.00 288.00 0.00 7.37 0.44
343.00 288.00 0.00 7.36 0.43
344.00 288.00 0.00 7.35 0.42
345.00 288.00 0.00 7.34 0.40
346.00 288.00 0.00 7.33 0.39
347.00 288.00 0.00 7.32 0.38
348.00 288.00 0.00 7.30 0.37
349.00 288.00 0.00 7.30 0.35
350.00 288.00 0.00 7.29 0.34
351.00 288.00 0.00 7.28 0.33
352.00 288.00 0.00 7.27 0.32
353.00 288.00 0.00 7.26 0.31
354.00 288.00 0.00 7.25 0.29
355.00 288.00 0.00 7.24 0.28
356.00 288.00 0.00 7.23 0.27
357.00 288.00 0.00 7.22 0.26
358.00 288.00 0.00 7.21 0.24
359.00 288.00 0.00 7.20 0.23
360.00 288.00 0.00 7.19 0.22
361.00 288.00 0.00 7.18 0.21
362.00 288.00 0.00 7.17 0.20
363.00 288.00 0.00 7.16 0.18
364.00 288.00 0.00 7.15 0.17
365.00 288.00 0.00 7.14 0.16
366.00 288.00 0.00 7.13 0.15
367.00 288.00 0.00 7.12 0.13
368.00 288.00 0.00 7.10 0.12
369.00 288.00 0.00 7.10 0.11
370.00 288.00 0.00 7.09 0.10
371.00 288.00 0.00 7.08 0.09
372.00 288.00 0.00 7.07 0.07
373.00 288.00 0.00 7.06 0.06
374.00 288.00 0.00 7.05 0.05
375.00 288.00 0.00 7.04 0.04
376.00 288.00 0.00 7.03 0.02
377.00 288.00 0.00 7.02 0.01
378.00 288.00 0.00 7.01 -0.00
379.00 288.00 0.00 7.00 -0.01
380.00 288.00 0.00 6.99 -0.02
381.00 288.00 0.00 6.98 -0.04
382.00 288.00 0.00 6.97 -0.05
383.00 288.00 0.00 6.96 -0.06
384.00 288.00 0.00 6.95 -0.07
385.00 288.00 0.00 6.94 -0.09
386.00 288.00 0.00 6.93 -0.10
387.00 288.00 0.00 6.92 -0.11
388.00 288.00 0.00 6.91 -0.12
389.00 288.00 0.00 6.90 -0.13
390.00 288.00 0.00 6.89 -0.15
391.00 288.00 0.00 6.88 -0.16
392.00 288.00 0.00 6.87 -0.17
393.00 288.00 0.00 6.86 -0.18
394.00 288.00 0.00 6.85 -0.20
395.00 288.00 0.00 6.84 -0.21
396.00 288.00 0.00 6.83 -0.22
397.00 288.00 0.00 6.82 -0.23
398.00 288.00 0.00 6.81 -0.24
399.00 288.00 0.00 6.80 -0.26
400.00 288.00 0.00 6.79 -0.27
401.00 288.00 0.00 6.78 -0.28
402.00 288.00 0.00 6.77 -0.29
403.00 288.00 0.00 6.76 -0.31
404.00 288.00 0.00 6.75 -0.32
405.00 288.00 0.00 6.74 -0.33
406.00 288.00 0.00 6.73 -0.34
407.00 288.00 0.00 6.72 -0.35
408.00 288.00 0.00 6.71 -0.37
409.00 288.00 0.00 6.70 -0.38
410.00 288.00 0.00 6.69 -0.39
411.00 288.00 0.00 6.68 -0.40
412.00 288.00 0.00 6.67 -0.42
413.00 288.00 0.00 6.66 -0.43
414.00 288.00 0.00 6.65 -0.44
415.00 288.00 0.00 6.64 -0.45
416.00 288.00 0.00 6.63 -0.46
417.00 288.00 0.00 6.62 -0.48
418.00 288.00 0.00 6.61 -0.49
419.00 288.00 0.00 6.60 -0.50
420.00 288.00 0.00 6.59 -0.51
421.00 288.00 0.00 6.58 -0.52
422.00 288.00 0.00 6.57 -0.54
423.00 288.00 0.00 6.56 -0.55
424.00 288.00 0.00 6.55 -0.56
425.00 288.00 0.00 6.54 -0.57
426.00 288.00 0.00 6.53 -0.59
427.00 288.00 0.00 6.52 -0.60
428.00 288.00 0.00 6.51 -0.61
429.00 288.00 0.00 6.50 -0.62
430.00 288.00 0.00 6.49 -0.63
431.00 288.00 0.00 6.48 -0.65
432.00 288.00 0.00 6.47 -0.66
433.00 288.00 0.00 6.46 -0.67
434.00 288.00 0.00 6.45 -0.68
435.00 288.00 0.00 6.44 -0.70
436.00 288.00 0.00 6.43 -0.71
437.00 288.00 0.00 6.42 -0.72
438.00 288.00 0.00 6.41 -0.73
439.00 288.00 0.00 6.40 -0.74
440.00 288.00 0.00 6.39 -0.76
441.00 288.00 0.00 6.38 -0.77
442.00 288.00 0.00 6.37 -0.78
443.00 288.00 0.00 6.36 -0.79
444.00 288.00 0.00 6.35 -0.80
445.00 288.00 0.00 6.33 -0.82
446.00 288.00 0.00 6.33 -0.83
447.00 288.00 0.00 6.32 -0.84
448.00 288.00 0.00 6.31 -0.85
449.00 288.00 0.00 6.30 -0.87
450.00 288.00 0.00 6.29 -0.88
451.00 288.00 0.00 6.28 -0.89
452.00 288.00 0.00 6.27 -0.90
453.00 288.00 0.00 6.26 -0.91
454.00 288.00 0.00 6.25 -0.93
455.00 288.00 0.00 6.24 -0.94
456.00 288.00 0.00 6.23 -0.95
457.00 288.00 0.00 6.21 -0.96
458.00 288.00 0.00 6.21 -0.97
459.00 288.00 0.00 6.20 -0.99
460.00 288.00 0.00 6.19 -1.00
461.00 288.00 0.00 6.18 -1.01
462.00 288.00 0.00 6.17 -1.02
463.00 288.00 0.00 6.16 -1.03
464.00 288.00 0.00 6.15 -1.05
465.00 288.00 0.00 6.14 -1.06
466.00 288.00 0.00 6.13 -1.07
467.00 288.00 0.00 6.12 -1.08
468.00 288.00 0.00 6.11 -1.10
469.00 288.00 0.00 6.10 -1.11
470.00 288.00 0.00 6.09 -1.12
471.00 288.00 0.00 6.08 -1.13
472.00 288.00 0.00 6.07 -1.14
473.00 288.00 0.00 6.06 -1.16
474.00 288.00 0.00 6.05 -1.17
475.00 288.00 0.00 6.04 -1.18
476.00 288.00 0.00 6.03 -1.19
477.00 288.00 0.00 6.02 -1.20
478.00 288.00 0.00 6.01 -1.22
479.00 288.00 0.00 6.00 -1.23
480.00 288.00 0.00 5.99 -1.24
481.00 288.00 0.00 5.98 -1.25
482.00 288.00 0.00 5.97 -1.26
483.00 288.00 0.00 5.96 -1.28
484.00 288.00 0.00 5.95 -1.29
485.00 288.00 0.00 5.94 -1.30
486.00 288.00 0.00 5.93 -1.31
487.00 288.00 0.00 5.92 -1.32
488.00 288.00 0.00 5.91 -1.34
489.00 288.00 0.00 5.90 -1.35
490.00 288.00 0.00 5.89 -1.36
491.00 288.00 0.00 5.88 -1.37
492.00 288.00 0.00 5.87 -1.38
493.00 288.00 0.00 5.86 -1.40
494.00 288.00 0.00 5.85 -1.41
495.00 288.00 0.00 5.84 -1.42
496.00 288.00 0.00 5.83 -1.43
497.00 288.00 0.00 5.82 -1.44
498.00 288.00 0.00 5.81 -1.46
499.00 288.00 0.00 5.80 -1.47
500.00 288.00 0.00 5.79 -1.48
501.00 288.00 0.00 5.78 -1.49
502.00 288.00 0.00 5.77 -1.50
503.00 288.00 0.00 5.76 -1.51
504.00 288.00 0.00 5.75 -1.53
505.00 288.00 0.00 5.74 -1.54
506.00 288.00 0.00 5.73 -1.55
507.00 288.00 0.00 5.72 -1.56
508.00 288.00 0.00 5.71 -1.57
509.00 288.00 0.00 5.70 -1.58
510.00 288.00 0.00 5.69 -1.59
511.00 288.00 0.00 5.68 -1.61
512.00 288.00 0.00 5.67 -1.62
513.00 288.00 0.00 5.66 -1.63
514.00 288.00 0.00 5.65 -1.64
515.00 288.00 0.00 5.64 -1.65
516.00 288.00 0.00 5.63 -1.66
517.00 288.00 0.00 5.62 -1.67
518.00 288.00 0.00 5.61 -1.68
519.00 288.00 0.00 5.60 -1.69
520.00 288.00 0.00 5.60 -1.70
521.00 288.00 0.00 5.59 -1.71
522.00 288.00 0.00 5.58 -1.72
523.00 288.00 0.00 5.57 -1.73
524.00 288.00 0.00 5.56 -1.75
525.00 288.00 0.00 5.55 -1.76
526.00 288.00 0.00 5.54 -1.77
527.00 288.00 0.00 5.53 -1.78
528.00 288.00 0.00 5.53 -1.79
529.00 288.00 0.00 5.52 -1.80
530.00 288.00 0.00 5.51 -1.81
531.00 288.00 0.00 5.50 -1.82
532.00 288.00 0.00 5.49 -1.82
533.00 288.00 0.00 5.48 -1.83
534.00 288.00 0.00 5.48 -1.84
535.00 288.00 0.00 5.47 -1.85
536.00 288.00 0.00 5.46 -1.86
537.00 288.00 0.00 5.45 -1.87
538.00 288.00 0.00 5.44 -1.88
539.00 288.00 0.00 5.44 -1.89
540.00 288.00 0.00 5.43 -1.90
541.00 288.00 0.00 5.42 -1.91
542.00 288.00 0.00 5.41 -1.92
543.00 288.00 0.00 5.41 -1.93
544.00 288.00 0.00 5.40 -1.94
545.00 288.00 0.00 5.39 -1.94
546.00 288.00 0.00 5.38 -1.95
547.00 288.00 0.00 5.38 -1.96
548.00 288.00 0.00 5.37 -1.97
549.00 288.00 0.00 5.36 -1.98
550.00 288.00 0.00 5.35 -1.99
551.00 288.00 0.00 5.35 -2.00
552.00 288.00 0.00 5.34 -2.00
553.00 288.00 0.00 5.33 -2.01
554.00 288.00 0.00 5.33 -2.02
555.00 288.00 0.00 5.32 -2.03
556.00 288.00 0.00 5.31 -2.04
557.00 288.00 0.00 5.30 -2.05
558.00 288.00 0.00 5.30 -2.05
559.00 288.00 0.00 5.29 -2.06
560.00 288.00 0.00 5.28 -2.07
561.00 288.00 0.00 5.28 -2.08
562.00 288.00 0.00 5.27 -2.08
563.00 288.00 0.00 5.26 -2.09
564.00 288.00 0.00 5.26 -2.10
565.00 288.00 0.00 5.25 -2.11
566.00 288.00 0.00 5.24 -2.11
567.00 288.00 0.00 5.24 -2.12
568.00 288.00 0.00 5.23 -2.13
569.00 288.00 0.00 5.23 -2.14
570.00 288.00 0.00 5.22 -2.14
571.00 288.00 0.00 5.21 -2.15
572.00 288.00 0.00 5.21 -2.16
573.00 288.00 0.00 5.20 -2.16
574.00 288.00 0.00 5.20 -2.17
575.00 288.00 0.00 5.19 -2.18
576.00 288.00 0.00 5.18 -2.18
577.00 288.00 0.00 5.18 -2.19
578.00 288.00 0.00 5.17 -2.20
579.00 288.00 0.00 5.17 -2.20
580.00 288.00 0.00 5.16 -2.21
581.00 288.00 0.00 5.16 -2.22
582.00 288.00 0.00 5.15 -2.22
583.00 288.00 0.00 5.15 -2.23
584.00 288.00 0.00 5.14 -2.24
585.00 288.00 0.00 5.13 -2.24
586.00 288.00 0.00 5.13 -2.25
587.00 288.00 0.00 5.12 -2.25
588.00 288.00 0.00 5.12 -2.26
589.00 288.00 0.00 5.11 -2.27
590.00 288.00 0.00 5.11 -2.27
591.00 288.00 0.00 5.10 -2.28
592.00 288.00 0.00 5.10 -2.28
593.00 288.00 0.00 5.09 -2.29
594.00 288.00 0.00 5.09 -2.29
595.00 288.00 0.00 5.08 -2.30
596.00 288.00 0.00 5.08 -2.31
597.00 288.00 0.00 5.07 -2.31
598.00 288.00 0.00 5.07 -2.32
599.00 288.00 0.00 5.07 -2.32
600.00 288.00 0.00 5.06 -2.33
601.00 288.00 0.00 5.06 -2.33
602.00 288.00 0.00 5.05 -2.34
603.00 288.00 0.00 5.05 -2.34
604.00 288.00 0.00 5.04 -2.35
605.00 288.00 0.00 5.04 -2.35
606.00 288.00 0.00 5.04 -2.36
607.00 288.00 0.00 5.03 -2.36
608.00 288.00 0.00 5.03 -2.37
609.00 288.00 0.00 5.02 -2.37
610.00 288.00 0.00 5.02 -2.37
611.00 288.00 0.00 5.02 -2.38
612.00 288.00 0.00 5.01 -2.38
613.00 288.00 0.00 5.01 -2.39
614.00 288.00 0.00 5.00 -2.39
615.00 288.00 0.00 5.00 -2.40
616.00 288.00 0.00 5.00 -2.40
617.00 288.00 0.00 4.99 -2.40
618.00 288.00 0.00 4.99 -2.41
619.00 288.00 0.00 4.99 -2.41
620.00 288.00 0.00 4.98 -2.42
621.00 288.00 0.00 4.98 -2.42
622.00 288.00 0.00 4.98 -2.42
623.00 288.00 0.00 4.97 -2.43
624.00 288.00 0.00 4.97 -2.43
625.00 288.00 0.00 4.97 -2.43
626.00 288.00 0.00 4.96 -2.44
627.00 288.00 0.00 4.96 -2.44
628.00 288.00 0.00 4.96 -2.44
629.00 288.00 0.00 4.96 -2.45
630.00 288.00 0.00 4.95 -2.45
631.00 288.00 0.00 4.95 -2.45
632.00 288.00 0.00 4.95 -2.46
633.00 288.00 0.00 4.94 -2.46
634.00 288.00 0.00 4.94 -2.46
635.00 288.00 0.00 4.94 -2.47
636.00 288.00 0.00 4.94 -2.47
637.00 288.00 0.00 4.93 -2.47
638.00 288.00 0.00 4.93 -2.47
639.00 288.00 0.00 4.93 -2.48
640.00 288.00 0.00 4.93 -2.48
641.00 288.00 0.00 4.93 -2.48
642.00 288.00 0.00 4.92 -2.48
643.00 288.00 0.00 4.92 -2.49
644.00 288.00 0.00 4.92 -2.49
645.00 288.00 0.00 4.92 -2.49
646.00 288.00 0.00 4.92 -2.49
647.00 288.00 0.00 4.91 -2.49
648.00 288.00 0.00 4.91 -2.50
649.00 288.00 0.00 4.91 -2.50
650.00 288.00 0.00 4.91 -2.50
651.00 288.00 0.00 4.91 -2.50
652.00 288.00 0.00 4.90 -2.50
653.00 288.00 0.00 4.90 -2.51
654.00 288.00 0.00 4.90 -2.51
655.00 288.00 0.00 4.90 -2.51
656.00 288.00 0.00 4.90 -2.51
657.00 288.00 0.00 4.90 -2.51
658.00 288.00 0.00 4.90 -2.51
659.00 288.00 0.00 4.90 -2.51
660.00 288.00 0.00 4.89 -2.52
661.00 288.00 0.00 4.89 -2.52
662.00 288.00 0.00 4.89 -2.52
663.00 288.00 0.00 4.89 -2.52
664.00 288.00 0.00 4.89 -2.52
665.00 288.00 0.00 4.89 -2.52
666.00 288.00 0.00 4.89 -2.52
667.00 288.00 0.00 4.89 -2.52
668.00 288.00 0.00 4.89 -2.52
669.00 288.00 0.00 4.89 -2.52
670.00 288.00 0.00 4.89 -2.53
671.00 288.00 0.00 4.88 -2.53
672.00 288.00 0.00 4.88 -2.53
673.00 288.00 0.00 4.88 -2.53
674.00 288.00 0.00 4.88 -2.53
675.00 288.00 0.00 4.88 -2.53
676.00 288.00 0.00 4.88 -2.53
677.00 288.00 0.00 4.88 -2.53
678.00 288.00 0.00 4.88 -2.53
679.00 288.00 0.00 4.88 -2.53
680.00 288.00 0.00 4.88 -2.53
681.00 288.00 0.00 4.88 -2.53
682.00 288.00 0.00 4.88 -2.53
683.00 288.00 0.00 4.88 -2.53
684.00 288.00 0.00 4.88 -2.53
685.00 288.00 0.00 4.88 -2.53
686.00 288.00 0.00 4.88 -2.53
687.00 288.00 0.00 4.88 -2.53
688.00 288.00 0.00 4.88 -2.53
689.00 288.00 0.00 4.88 -2.53
690.00 288.00 0.00 4.88 -2.53
691.00 288.00 0.00 4.88 -2.53
692.00 288.00 0.00 4.88 -2.53
693.00 288.00 0.00 4.88 -2.53
694.00 288.00 0.00 4.88 -2.53
695.00 288.00 0.00 4.88 -2.53
696.00 288.00 0.00 4.88 -2.53
697.00 288.00 0.00 4.88 -2.53
698.00 288.00 0.00 4.88 -2.53
699.00 288.00 0.00 4.88 -2.53
700.00 288.00 0.00 4.88 -2.53
701.00 288.00 0.00 4.88 -2.53
702.00 288.00 0.00 4.88 -2.53
703.00 288.00 0.00 4.88 -2.53
704.00 288.00 0.00 4.88 -2.53
705.00 288.00 0.00 4.88 -2.53
706.00 288.00 0.00 4.88 -2.53
707.00 288.00 0.00 4.88 -2.53
708.00 288.00 0.00 4.88 -2.53
709.00 288.00 0.00 4.88 -2.53
710.00 288.00 0.00 4.88 -2.53
711.00 288.00 0.00 4.88 -2.53
712.00 288.00 0.00 4.88 -2.53
713.00 288.00 0.00 4.88 -2.53
714.00 288.00 0.00 4.88 -2.53
715.00 288.00 0.00 4.88 -2.53
716.00 288.00 0.00 4.88 -2.53
717.00 288.00 0.00 4.88 -2.53
718.00 288.00 0.00 4.88 -2.53
719.00 288.00 0.00 4.88 -2.53
720.00 288.00 0.00 4.88 -2.53
721.00 288.00 0.00 4.88 -2.53
722.00 288.00 0.00 4.88 -2.53
723.00 288.00 0.00 4.88 -2.53
724.00 288.00 0.00 4.88 -2.53
725.00 288.00 0.00 4.88 -2.53
726.00 288.00 0.00 4.88 -2.53
727.00 288.00 0.00 4.88 -2.53
728.00 288.00 0.00 4.88 -2.53
729.00 288.00 0.00 4.88 -2.53
730.00 288.00 0.00 4.88 -2.53
731.00 288.00 0.00 4.88 -2.53
732.00 288.00 0.00 4.88 -2.53
733.00 288.00 0.00 4.88 -2.53
734.00 288.00 0.00 4.88 -2.53
735.00 288.00 0.00 4.88 -2.53
736.00 288.00 0.00 4.88 -2.53
737.00 288.00 0.00 4.88 -2.53
738.00 288.00 0.00 4.88 -2.53
739.00 288.00 0.00 4.88 -2.53
740.00 288.00 0.00 4.88 -2.53
741.00 288.00 0.00 4.88 -2.53
742.00 288.00 0.00 4.88 -2.53
743.00 288.00 0.00 4.88 -2.53
744.00 288.00 0.00 4.88 -2.53
745.00 288.00 0.00 4.88 -2.53
746.00 288.00 0.00 4.88 -2.53
747.00 288.00 0.00 4.88 -2.53
748.00 288.00 0.00 4.88 -2.53
749.00 288.00 0.00 4.88 -2.53
750.00 288.00 0.00 4.88 -2.53
751.00 288.00 0.00 4.88 -2.53
752.00 288.00 0.00 4.88 -2.53
753.00 288.00 0.00 4.88 -2.53
754.00 288.00 0.00 4.88 -2.53
755.00 288.00 0.00 4.88 -2.53
756.00 288.00 0.00 4.88 -2.53
757.00 288.00 0.00 4.88 -2.53
758.00 288.00 0.00 4.88 -2.53
759.00 288.00 0.00 4.88 -2.53
760.00 288.00 0.00 4.88 -2.53
761.00 288.00 0.00 4.88 -2.53
762.00 288.00 0.00 4.88 -2.53
763.00 288.00 0.00 4.88 -2.53
764.00 288.00 0.00 4.88 -2.53
765.00 288.00 0.00 4.88 -2.53
766.00 288.00 0.00 4.88 -2.53
767.00 288.00 0.00 4.88 -2.53
768.00 288.00 0.00 4.88 -2.53
769.00 288.00 0.00 4.88 -2.53
770.00 288.00 0.00 4.88 -2.53
771.00 288.00 0.00 4.88 -2.53
772.00 288.00 0.00 4.88 -2.53
773.00 288.00 0.00 4.88 -2.53
774.00 288.00 0.00 4.88 -2.53
775.00 288.00 0.00 4.88 -2.53
776.00 288.00 0.00 4.88 -2.53
777.00 288.00 0.00 4.88 -2.53
778.00 288.00 0.00 4.88 -2.53
779.00 288.00 0.00 4.88 -2.53
780.00 288.00 0.00 4.88 -2.53
781.00 288.00 0.00 4.88 -2.53
782.00 288.00 0.00 4.88 -2.53
783.00 288.00 0.00 4.88 -2.53
784.00 288.00 0.00 4.88 -2.53
785.00 288.00 0.00 4.88 -2.53
786.00 288.00 0.00 4.88 -2.53
787.00 288.00 0.00 4.88 -2.53
788.00 288.00 0.00 4.88 -2.53
789.00 288.00 0.00 4.88 -2.53
790.00 288.00 0.00 4.88 -2.53
791.00 288.00 0.00 4.88 -2.53
792.00 288.00 0.00 4.88 -2.53
793.00 288.00 0.00 4.88 -2.53
794.00 288.00 0.00 4.88 -2.53
795.00 288.00 0.00 4.88 -2.53
796.00 288.00 0.00 4.88 -2.53
797.00 288.00 0.00 4.88 -2.53
798.00 288.00 0.00 4.88 -2.53
799.00 288.00 0.00 4.88 -2.53
800.00 288.00 0.00 4.88 -2.53
801.00 288.00 0.00 4.88 -2.53
802.00 288.00 0.00 4.88 -2.53
803.00 288.00 0.00 4.88 -2.53
804.00 288.00 0.00 4.88 -2.53
805.00 288.00 0.00 4.88 -2.53
806.00 288.00 0.00 4.88 -2.53
807.00 288.00 0.00 4.88 -2.53
808.00 288.00 0.00 4.88 -2.53
809.00 288.00 0.00 4.88 -2.53
810.00 288.00 0.00 4.88 -2.53
811.00 288.00 0.00 4.88 -2.53
812.00 288.00 0.00 4.88 -2.53
813.00 288.00 0.00 4.88 -2.53
814.00 288.00 0.00 4.88 -2.53
815.00 288.00 0.00 4.88 -2.53
816.00 288.00 0.00 4.88 -2.53
817.00 288.00 0.00 4.88 -2.53
818.00 288.00 0.00 4.88 -2.53
819.00 288.00 0.00 4.88 -2.53
820.00 288.00 0.00 4.88 -2.53
821.00 288.00 0.00 4.88 -2.53
822.00 288.00 0.00 4.88 -2.53
823.00 288.00 0.00 4.88 -2.53
824.00 288.00 0.00 4.88 -2.53
825.00 288.00 0.00 4.88 -2.53
826.00 288.00 0.00 4.88 -2.53
827.00 288.00 0.00 4.88 -2.53
828.00 288.00 0.00 4.88 -2.53
829.00 288.00 0.00 4.88 -2.53
830.00 288.00 0.00 4.88 -2.53
831.00 288.00 0.00 4.88 -2.53
