1000.00 288.00 00.00
0.00 288.00 0.00 2.03 5.34
1.00 288.00 0.00 2.03 5.34
2.00 288.00 0.00 2.03 5.34
3.00 288.00 0.00 2.03 5.34
4.00 288.00 0.00 2.03 5.34
5.00 288.00 0.00 2.03 5.34
6.00 288.00 0.00 2.03 5.34
7.00 288.00 0.00 2.03 5.34
8.00 288.00 0.00 2.03 5.34
9.00 288.00 0.00 2.03 5.34
10.00 288.00 0.00 2.03 5.34
11.00 288.00 0.00 2.03 5.34
12.00 288.00 0.00 2.03 5.34
13.00 288.00 0.00 2.03 5.34
14.00 288.00 0.00 2.03 5.34
15.00 288.00 0.00 2.03 5.34
16.00 288.00 0.00 2.03 5.34
17.00 288.00 0.00 2.03 5.34
18.00 288.00 0.00 2.03 5.34
19.00 288.00 0.00 2.03 5.34
20.00 288.00 0.00 2.03 5.34
21.00 288.00 0.00 2.03 5.34
22.00 288.00 0.00 2.03 5.34
23.00 288.00 0.00 2.03 5.34
24.00 288.00 0.00 2.03 5.34
25.00 288.00 0.00 2.03 5.34
26.00 288.00 0.00 2.03 5.34
27.00 288.00 0.00 2.03 5.34
28.00 288.00 0.00 2.03 5.34
29.00 288.00 0.00 2.03 5.34
30.00 288.00 0.00 2.03 5.34
31.00 288.00 0.00 2.03 5.34
32.00 288.00 0.00 2.03 5.34
33.00 288.00 0.00 2.03 5.34
34.00 288.00 0.00 2.03 5.34
35.00 288.00 0.00 2.03 5.34
36.00 288.00 0.00 2.03 5.34
37.00 288.00 0.00 2.03 5.34
38.00 288.00 0.00 2.03 5.34
39.00 288.00 0.00 2.03 5.34
40.00 288.00 0.00 2.03 5.34
41.00 288.00 0.00 2.03 5.34
42.00 288.00 0.00 2.03 5.34
43.00 288.00 0.00 2.03 5.34
44.00 288.00 0.00 2.03 5.34
45.00 288.00 0.00 2.03 5.34
46.00 288.00 0.00 2.03 5.34
47.00 288.00 0.00 2.03 5.34
48.00 288.00 0.00 2.03 5.34
49.00 288.00 0.00 2.03 5.33
50.00 288.00 0.00 2.04 5.33
51.00 288.00 0.00 2.04 5.33
52.00 288.00 0.00 2.04 5.33
53.00 288.00 0.00 2.04 5.33
54.00 288.00 0.00 2.04 5.33
55.00 288.00 0.00 2.04 5.33
56.00 288.00 0.00 2.04 5.33
57.00 288.00 0.00 2.05 5.33
58.00 288.00 0.00 2.05 5.32
59.00 288.00 0.00 2.05 5.32
60.00 288.00 0.00 2.05 5.32
61.00 288.00 0.00 2.05 5.32
62.00 288.00 0.00 2.06 5.32
63.00 288.00 0.00 2.06 5.31
64.00 288.00 0.00 2.06 5.31
65.00 288.00 0.00 2.06 5.31
66.00 288.00 0.00 2.07 5.31
67.00 288.00 0.00 2.07 5.31
68.00 288.00 0.00 2.07 5.30
69.00 288.00 0.00 2.08 5.30
70.00 288.00 0.00 2.08 5.30
71.00 288.00 0.00 2.08 5.29
72.00 288.00 0.00 2.09 5.29
73.00 288.00 0.00 2.09 5.29
74.00 288.00 0.00 2.09 5.29
75.00 288.00 0.00 2.10 5.28
76.00 288.00 0.00 2.10 5.28
77.00 288.00 0.00 2.11 5.28
78.00 288.00 0.00 2.11 5.27
79.00 288.00 0.00 2.11 5.27
80.00 288.00 0.00 2.12 5.27
81.00 288.00 0.00 2.12 5.26
82.00 288.00 0.00 2.13 5.26
83.00 288.00 0.00 2.13 5.25
84.00 288.00 0.00 2.14 5.25
85.00 288.00 0.00 2.14 5.25
86.00 288.00 0.00 2.15 5.24
87.00 288.00 0.00 2.15 5.24
88.00 288.00 0.00 2.16 5.23
89.00 288.00 0.00 2.16 5.23
90.00 288.00 0.00 2.17 5.23
91.00 288.00 0.00 2.17 5.22
92.00 288.00 0.00 2.18 5.22
93.00 288.00 0.00 2.19 5.21
94.00 288.00 0.00 2.19 5.21
95.00 288.00 0.00 2.20 5.20
96.00 288.00 0.00 2.20 5.20
97.00 288.00 0.00 2.21 5.19
98.00 288.00 0.00 2.22 5.19
99.00 288.00 0.00 2.22 5.18
100.00 288.00 0.00 2.23 5.17
101.00 288.00 0.00 2.24 5.17
102.00 288.00 0.00 2.24 5.16
103.00 288.00 0.00 2.25 5.16
104.00 288.00 0.00 2.26 5.15
105.00 288.00 0.00 2.26 5.15
106.00 288.00 0.00 2.27 5.14
107.00 288.00 0.00 2.28 5.13
108.00 288.00 0.00 2.29 5.13
109.00 288.00 0.00 2.29 5.12
110.00 288.00 0.00 2.30 5.11
111.00 288.00 0.00 2.31 5.11
112.00 288.00 0.00 2.32 5.10
113.00 288.00 0.00 2.33 5.09
114.00 288.00 0.00 2.33 5.09
115.00 288.00 0.00 2.34 5.08
116.00 288.00 0.00 2.35 5.07
117.00 288.00 0.00 2.36 5.07
118.00 288.00 0.00 2.37 5.06
119.00 288.00 0.00 2.38 5.05
120.00 288.00 0.00 2.39 5.04
121.00 288.00 0.00 2.39 5.04
122.00 288.00 0.00 2.40 5.03
123.00 288.00 0.00 2.41 5.02
124.00 288.00 0.00 2.42 5.01
125.00 288.00 0.00 2.43 5.00
126.00 288.00 0.00 2.44 5.00
127.00 288.00 0.00 2.45 4.99
128.00 288.00 0.00 2.46 4.98
129.00 288.00 0.00 2.47 4.97
130.00 288.00 0.00 2.48 4.96
131.00 288.00 0.00 2.49 4.95
132.00 288.00 0.00 2.50 4.95
133.00 288.00 0.00 2.51 4.94
134.00 288.00 0.00 2.52 4.93
135.00 288.00 0.00 2.53 4.92
136.00 288.00 0.00 2.54 4.91
137.00 288.00 0.00 2.55 4.90
138.00 288.00 0.00 2.56 4.89
139.00 288.00 0.00 2.57 4.88
140.00 288.00 0.00 2.59 4.87
141.00 288.00 0.00 2.60 4.86
142.00 288.00 0.00 2.61 4.85
143.00 288.00 0.00 2.62 4.84
144.00 288.00 0.00 2.63 4.83
145.00 288.00 0.00 2.64 4.82
146.00 288.00 0.00 2.65 4.81
147.00 288.00 0.00 2.67 4.80
148.00 288.00 0.00 2.68 4.79
149.00 288.00 0.00 2.69 4.78
150.00 288.00 0.00 2.70 4.77
151.00 288.00 0.00 2.71 4.76
152.00 288.00 0.00 2.73 4.74
153.00 288.00 0.00 2.74 4.73
154.00 288.00 0.00 2.75 4.72
155.00 288.00 0.00 2.76 4.71
156.00 288.00 0.00 2.78 4.70
157.00 288.00 0.00 2.79 4.69
158.00 288.00 0.00 2.80 4.67
159.00 288.00 0.00 2.82 4.66
160.00 288.00 0.00 2.83 4.65
161.00 288.00 0.00 2.84 4.64
162.00 288.00 0.00 2.86 4.63
163.00 288.00 0.00 2.87 4.61
164.00 288.00 0.00 2.88 4.60
165.00 288.00 0.00 2.90 4.59
166.00 288.00 0.00 2.91 4.58
167.00 288.00 0.00 2.93 4.56
168.00 288.00 0.00 2.94 4.55
169.00 288.00 0.00 2.95 4.54
170.00 288.00 0.00 2.97 4.52
171.00 288.00 0.00 2.98 4.51
172.00 288.00 0.00 3.00 4.49
173.00 288.00 0.00 3.01 4.48
174.00 288.00 0.00 3.03 4.47
175.00 288.00 0.00 3.04 4.45
176.00 288.00 0.00 3.06 4.44
177.00 288.00 0.00 3.07 4.42
178.00 288.00 0.00 3.09 4.41
179.00 288.00 0.00 3.10 4.39
180.00 288.00 0.00 3.12 4.38
181.00 288.00 0.00 3.13 4.37
182.00 288.00 0.00 3.15 4.35
183.00 288.00 0.00 3.17 4.33
184.00 288.00 0.00 3.18 4.32
185.00 288.00 0.00 3.20 4.30
186.00 288.00 0.00 3.21 4.29
187.00 288.00 0.00 3.23 4.27
188.00 288.00 0.00 3.25 4.26
189.00 288.00 0.00 3.26 4.24
190.00 288.00 0.00 3.28 4.22
191.00 288.00 0.00 3.30 4.21
192.00 288.00 0.00 3.31 4.19
193.00 288.00 0.00 3.33 4.17
194.00 288.00 0.00 3.35 4.16
195.00 288.00 0.00 3.36 4.14
196.00 288.00 0.00 3.38 4.12
197.00 288.00 0.00 3.40 4.11
198.00 288.00 0.00 3.42 4.09
199.00 288.00 0.00 3.43 4.07
200.00 288.00 0.00 3.45 4.05
201.00 288.00 0.00 3.47 4.04
202.00 288.00 0.00 3.49 4.02
203.00 288.00 0.00 3.51 4.00
204.00 288.00 0.00 3.52 3.98
205.00 288.00 0.00 3.54 3.96
206.00 288.00 0.00 3.56 3.94
207.00 288.00 0.00 3.58 3.93
208.00 288.00 0.00 3.60 3.91
209.00 288.00 0.00 3.62 3.89
210.00 288.00 0.00 3.64 3.87
211.00 288.00 0.00 3.65 3.85
212.00 288.00 0.00 3.67 3.83
213.00 288.00 0.00 3.69 3.81
214.00 288.00 0.00 3.71 3.79
215.00 288.00 0.00 3.73 3.77
216.00 288.00 0.00 3.75 3.75
217.00 288.00 0.00 3.77 3.73
218.00 288.00 0.00 3.79 3.71
219.00 288.00 0.00 3.81 3.69
220.00 288.00 0.00 3.83 3.67
221.00 288.00 0.00 3.85 3.65
222.00 288.00 0.00 3.87 3.63
223.00 288.00 0.00 3.89 3.61
224.00 288.00 0.00 3.91 3.58
225.00 288.00 0.00 3.93 3.56
226.00 288.00 0.00 3.95 3.54
227.00 288.00 0.00 3.97 3.52
228.00 288.00 0.00 3.99 3.50
229.00 288.00 0.00 4.01 3.48
230.00 288.00 0.00 4.03 3.46
231.00 288.00 0.00 4.05 3.44
232.00 288.00 0.00 4.07 3.42
233.00 288.00 0.00 4.09 3.39
234.00 288.00 0.00 4.11 3.37
235.00 288.00 0.00 4.13 3.35
236.00 288.00 0.00 4.15 3.33
237.00 288.00 0.00 4.17 3.31
238.00 288.00 0.00 4.19 3.29
239.00 288.00 0.00 4.21 3.26
240.00 288.00 0.00 4.23 3.24
241.00 288.00 0.00 4.25 3.22
242.00 288.00 0.00 4.27 3.20
243.00 288.00 0.00 4.29 3.18
244.00 288.00 0.00 4.31 3.16
245.00 288.00 0.00 4.33 3.13
246.00 288.00 0.00 4.35 3.11
247.00 288.00 0.00 4.37 3.09
248.00 288.00 0.00 4.39 3.07
249.00 288.00 0.00 4.41 3.05
250.00 288.00 0.00 4.43 3.02
251.00 288.00 0.00 4.45 3.00
252.00 288.00 0.00 4.47 2.98
253.00 288.00 0.00 4.49 2.96
254.00 288.00 0.00 4.51 2.94
255.00 288.00 0.00 4.53 2.91
256.00 288.00 0.00 4.55 2.89
257.00 288.00 0.00 4.57 2.87
258.00 288.00 0.00 4.59 2.85
259.00 288.00 0.00 4.61 2.82
260.00 288.00 0.00 4.63 2.80
261.00 288.00 0.00 4.65 2.78
262.00 288.00 0.00 4.67 2.76
263.00 288.00 0.00 4.69 2.74
264.00 288.00 0.00 4.71 2.71
265.00 288.00 0.00 4.73 2.69
266.00 288.00 0.00 4.75 2.67
267.00 288.00 0.00 4.77 2.64
268.00 288.00 0.00 4.79 2.62
269.00 288.00 0.00 4.81 2.60
270.00 288.00 0.00 4.83 2.58
271.00 288.00 0.00 4.85 2.55
272.00 288.00 0.00 4.87 2.53
273.00 288.00 0.00 4.89 2.51
274.00 288.00 0.00 4.91 2.49
275.00 288.00 0.00 4.93 2.46
276.00 288.00 0.00 4.95 2.44
277.00 288.00 0.00 4.97 2.42
278.00 288.00 0.00 4.99 2.39
279.00 288.00 0.00 5.01 2.37
280.00 288.00 0.00 5.03 2.35
281.00 288.00 0.00 5.05 2.33
282.00 288.00 0.00 5.07 2.30
283.00 288.00 0.00 5.09 2.28
284.00 288.00 0.00 5.11 2.26
285.00 288.00 0.00 5.13 2.23
286.00 288.00 0.00 5.15 2.21
287.00 288.00 0.00 5.17 2.19
288.00 288.00 0.00 5.19 2.16
289.00 288.00 0.00 5.21 2.14
290.00 288.00 0.00 5.23 2.12
291.00 288.00 0.00 5.25 2.09
292.00 288.00 0.00 5.27 2.07
293.00 288.00 0.00 5.29 2.05
294.00 288.00 0.00 5.31 2.02
295.00 288.00 0.00 5.33 2.00
296.00 288.00 0.00 5.35 1.98
297.00 288.00 0.00 5.37 1.95
298.00 288.00 0.00 5.39 1.93
299.00 288.00 0.00 5.41 1.91
300.00 288.00 0.00 5.43 1.88
301.00 288.00 0.00 5.45 1.86
302.00 288.00 0.00 5.47 1.84
303.00 288.00 0.00 5.49 1.81
304.00 288.00 0.00 5.51 1.79
305.00 288.00 0.00 5.53 1.76
306.00 288.00 0.00 5.55 1.74
307.00 288.00 0.00 5.57 1.72
308.00 288.00 0.00 5.59 1.69
309.00 288.00 0.00 5.61 1.67
310.00 288.00 0.00 5.63 1.65
311.00 288.00 0.00 5.65 1.62
312.00 288.00 0.00 5.67 1.60
313.00 288.00 0.00 5.69 1.57
314.00 288.00 0.00 5.71 1.55
315.00 288.00 0.00 5.73 1.53
316.00 288.00 0.00 5.75 1.50
317.00 288.00 0.00 5.77 1.48
318.00 288.00 0.00 5.79 1.46
319.00 288.00 0.00 5.81 1.43
320.00 288.00 0.00 5.83 1.41
321.00 288.00 0.00 5.85 1.38
322.00 288.00 0.00 5.87 1.36
323.00 288.00 0.00 5.89 1.34
324.00 288.00 0.00 5.91 1.31
325.00 288.00 0.00 5.93 1.29
326.00 288.00 0.00 5.95 1.26
327.00 288.00 0.00 5.97 1.24
328.00 288.00 0.00 5.99 1.22
329.00 288.00 0.00 6.01 1.19
330.00 288.00 0.00 6.03 1.17
331.00 288.00 0.00 6.05 1.14
332.00 288.00 0.00 6.07 1.12
333.00 288.00 0.00 6.09 1.10
334.00 288.00 0.00 6.11 1.07
335.00 288.00 0.00 6.13 1.05
336.00 288.00 0.00 6.15 1.02
337.00 288.00 0.00 6.17 1.00
338.00 288.00 0.00 6.19 0.97
339.00 288.00 0.00 6.21 0.95
340.00 288.00 0.00 6.23 0.93
341.00 288.00 0.00 6.25 0.90
342.00 288.00 0.00 6.27 0.88
343.00 288.00 0.00 6.29 0.85
344.00 288.00 0.00 6.31 0.83
345.00 288.00 0.00 6.33 0.80
346.00 288.00 0.00 6.35 0.78
347.00 288.00 0.00 6.37 0.76
348.00 288.00 0.00 6.39 0.73
349.00 288.00 0.00 6.41 0.71
350.00 288.00 0.00 6.43 0.68
351.00 288.00 0.00 6.45 0.66
352.00 288.00 0.00 6.47 0.63
353.00 288.00 0.00 6.49 0.61
354.00 288.00 0.00 6.51 0.59
355.00 288.00 0.00 6.53 0.56
356.00 288.00 0.00 6.55 0.54
357.00 288.00 0.00 6.57 0.51
358.00 288.00 0.00 6.59 0.49
359.00 288.00 0.00 6.61 0.46
360.00 288.00 0.00 6.63 0.44
361.00 288.00 0.00 6.65 0.42
362.00 288.00 0.00 6.67 0.39
363.00 288.00 0.00 6.69 0.37
364.00 288.00 0.00 6.71 0.34
365.00 288.00 0.00 6.73 0.32
366.00 288.00 0.00 6.75 0.29
367.00 288.00 0.00 6.77 0.27
368.00 288.00 0.00 6.79 0.24
369.00 288.00 0.00 6.81 0.22
370.00 288.00 0.00 6.83 0.20
371.00 288.00 0.00 6.85 0.17
372.00 288.00 0.00 6.87 0.15
373.00 288.00 0.00 6.89 0.12
374.00 288.00 0.00 6.91 0.10
375.00 288.00 0.00 6.93 0.07
376.00 288.00 0.00 6.95 0.05
377.00 288.00 0.00 6.97 0.02
378.00 288.00 0.00 6.99 -0.00
379.00 288.00 0.00 7.01 -0.02
380.00 288.00 0.00 7.03 -0.05
381.00 288.00 0.00 7.05 -0.07
382.00 288.00 0.00 7.07 -0.10
383.00 288.00 0.00 7.09 -0.12
384.00 288.00 0.00 7.11 -0.15
385.00 288.00 0.00 7.13 -0.17
386.00 288.00 0.00 7.15 -0.20
387.00 288.00 0.00 7.17 -0.22
388.00 288.00 0.00 7.19 -0.24
389.00 288.00 0.00 7.21 -0.27
390.00 288.00 0.00 7.23 -0.29
391.00 288.00 0.00 7.25 -0.32
392.00 288.00 0.00 7.27 -0.34
393.00 288.00 0.00 7.29 -0.37
394.00 288.00 0.00 7.31 -0.39
395.00 288.00 0.00 7.33 -0.42
396.00 288.00 0.00 7.35 -0.44
397.00 288.00 0.00 7.37 -0.46
398.00 288.00 0.00 7.39 -0.49
399.00 288.00 0.00 7.41 -0.51
400.00 288.00 0.00 7.43 -0.54
401.00 288.00 0.00 7.45 -0.56
402.00 288.00 0.00 7.47 -0.59
403.00 288.00 0.00 7.49 -0.61
404.00 288.00 0.00 7.51 -0.63
405.00 288.00 0.00 7.53 -0.66
406.00 288.00 0.00 7.55 -0.68
407.00 288.00 0.00 7.57 -0.71
408.00 288.00 0.00 7.59 -0.73
409.00 288.00 0.00 7.61 -0.76
410.00 288.00 0.00 7.63 -0.78
411.00 288.00 0.00 7.65 -0.80
412.00 288.00 0.00 7.67 -0.83
413.00 288.00 0.00 7.69 -0.85
414.00 288.00 0.00 7.71 -0.88
415.00 288.00 0.00 7.73 -0.90
416.00 288.00 0.00 7.75 -0.93
417.00 288.00 0.00 7.77 -0.95
418.00 288.00 0.00 7.79 -0.97
419.00 288.00 0.00 7.81 -1.00
420.00 288.00 0.00 7.83 -1.02
421.00 288.00 0.00 7.85 -1.05
422.00 288.00 0.00 7.87 -1.07
423.00 288.00 0.00 7.89 -1.10
424.00 288.00 0.00 7.91 -1.12
425.00 288.00 0.00 7.93 -1.14
426.00 288.00 0.00 7.95 -1.17
427.00 288.00 0.00 7.97 -1.19
428.00 288.00 0.00 7.99 -1.22
429.00 288.00 0.00 8.01 -1.24
430.00 288.00 0.00 8.03 -1.26
431.00 288.00 0.00 8.05 -1.29
432.00 288.00 0.00 8.07 -1.31
433.00 288.00 0.00 8.09 -1.34
434.00 288.00 0.00 8.11 -1.36
435.00 288.00 0.00 8.13 -1.38
436.00 288.00 0.00 8.15 -1.41
437.00 288.00 0.00 8.17 -1.43
438.00 288.00 0.00 8.19 -1.46
439.00 288.00 0.00 8.21 -1.48
440.00 288.00 0.00 8.23 -1.50
441.00 288.00 0.00 8.25 -1.53
442.00 288.00 0.00 8.27 -1.55
443.00 288.00 0.00 8.29 -1.57
444.00 288.00 0.00 8.31 -1.60
445.00 288.00 0.00 8.33 -1.62
446.00 288.00 0.00 8.35 -1.65
447.00 288.00 0.00 8.37 -1.67
448.00 288.00 0.00 8.39 -1.69
449.00 288.00 0.00 8.41 -1.72
450.00 288.00 0.00 8.43 -1.74
451.00 288.00 0.00 8.45 -1.76
452.00 288.00 0.00 8.47 -1.79
453.00 288.00 0.00 8.49 -1.81
454.00 288.00 0.00 8.51 -1.84
455.00 288.00 0.00 8.53 -1.86
456.00 288.00 0.00 8.55 -1.88
457.00 288.00 0.00 8.57 -1.91
458.00 288.00 0.00 8.59 -1.93
459.00 288.00 0.00 8.61 -1.95
460.00 288.00 0.00 8.63 -1.98
461.00 288.00 0.00 8.65 -2.00
462.00 288.00 0.00 8.67 -2.02
463.00 288.00 0.00 8.69 -2.05
464.00 288.00 0.00 8.71 -2.07
465.00 288.00 0.00 8.73 -2.09
466.00 288.00 0.00 8.75 -2.12
467.00 288.00 0.00 8.77 -2.14
468.00 288.00 0.00 8.79 -2.16
469.00 288.00 0.00 8.81 -2.19
470.00 288.00 0.00 8.83 -2.21
471.00 288.00 0.00 8.85 -2.23
472.00 288.00 0.00 8.87 -2.26
473.00 288.00 0.00 8.89 -2.28
474.00 288.00 0.00 8.91 -2.30
475.00 288.00 0.00 8.93 -2.33
476.00 288.00 0.00 8.95 -2.35
477.00 288.00 0.00 8.97 -2.37
478.00 288.00 0.00 8.99 -2.39
479.00 288.00 0.00 9.01 -2.42
480.00 288.00 0.00 9.03 -2.44
481.00 288.00 0.00 9.05 -2.46
482.00 288.00 0.00 9.07 -2.49
483.00 288.00 0.00 9.09 -2.51
484.00 288.00 0.00 9.11 -2.53
485.00 288.00 0.00 9.13 -2.55
486.00 288.00 0.00 9.15 -2.58
487.00 288.00 0.00 9.17 -2.60
488.00 288.00 0.00 9.19 -2.62
489.00 288.00 0.00 9.21 -2.64
490.00 288.00 0.00 9.23 -2.67
491.00 288.00 0.00 9.25 -2.69
492.00 288.00 0.00 9.27 -2.71
493.00 288.00 0.00 9.29 -2.74
494.00 288.00 0.00 9.31 -2.76
495.00 288.00 0.00 9.33 -2.78
496.00 288.00 0.00 9.35 -2.80
497.00 288.00 0.00 9.37 -2.82
498.00 288.00 0.00 9.39 -2.85
499.00 288.00 0.00 9.41 -2.87
500.00 288.00 0.00 9.43 -2.89
501.00 288.00 0.00 9.45 -2.91
502.00 288.00 0.00 9.47 -2.94
503.00 288.00 0.00 9.49 -2.96
504.00 288.00 0.00 9.51 -2.98
505.00 288.00 0.00 9.53 -3.00
506.00 288.00 0.00 9.55 -3.02
507.00 288.00 0.00 9.57 -3.05
508.00 288.00 0.00 9.59 -3.07
509.00 288.00 0.00 9.61 -3.09
510.00 288.00 0.00 9.63 -3.11
511.00 288.00 0.00 9.65 -3.13
512.00 288.00 0.00 9.67 -3.16
513.00 288.00 0.00 9.69 -3.18
514.00 288.00 0.00 9.71 -3.20
515.00 288.00 0.00 9.73 -3.22
516.00 288.00 0.00 9.75 -3.24
517.00 288.00 0.00 9.77 -3.26
518.00 288.00 0.00 9.79 -3.29
519.00 288.00 0.00 9.81 -3.31
520.00 288.00 0.00 9.83 -3.33
521.00 288.00 0.00 9.85 -3.35
522.00 288.00 0.00 9.87 -3.37
523.00 288.00 0.00 9.89 -3.39
524.00 288.00 0.00 9.91 -3.42
525.00 288.00 0.00 9.93 -3.44
526.00 288.00 0.00 9.95 -3.46
527.00 288.00 0.00 9.97 -3.48
528.00 288.00 0.00 9.99 -3.50
529.00 288.00 0.00 10.01 -3.52
530.00 288.00 0.00 10.03 -3.54
531.00 288.00 0.00 10.05 -3.56
532.00 288.00 0.00 10.07 -3.58
533.00 288.00 0.00 10.09 -3.61
534.00 288.00 0.00 10.11 -3.63
535.00 288.00 0.00 10.13 -3.65
536.00 288.00 0.00 10.15 -3.67
537.00 288.00 0.00 10.17 -3.69
538.00 288.00 0.00 10.19 -3.71
539.00 288.00 0.00 10.21 -3.73
540.00 288.00 0.00 10.23 -3.75
541.00 288.00 0.00 10.25 -3.77
542.00 288.00 0.00 10.27 -3.79
543.00 288.00 0.00 10.29 -3.81
544.00 288.00 0.00 10.31 -3.83
545.00 288.00 0.00 10.33 -3.85
546.00 288.00 0.00 10.35 -3.87
547.00 288.00 0.00 10.36 -3.89
548.00 288.00 0.00 10.38 -3.91
549.00 288.00 0.00 10.40 -3.93
550.00 288.00 0.00 10.42 -3.94
551.00 288.00 0.00 10.44 -3.96
552.00 288.00 0.00 10.46 -3.98
553.00 288.00 0.00 10.48 -4.00
554.00 288.00 0.00 10.49 -4.02
555.00 288.00 0.00 10.51 -4.04
556.00 288.00 0.00 10.53 -4.05
557.00 288.00 0.00 10.55 -4.07
558.00 288.00 0.00 10.57 -4.09
559.00 288.00 0.00 10.58 -4.11
560.00 288.00 0.00 10.60 -4.12
561.00 288.00 0.00 10.62 -4.14
562.00 288.00 0.00 10.64 -4.16
563.00 288.00 0.00 10.65 -4.17
564.00 288.00 0.00 10.67 -4.19
565.00 288.00 0.00 10.69 -4.21
566.00 288.00 0.00 10.70 -4.22
567.00 288.00 0.00 10.72 -4.24
568.00 288.00 0.00 10.74 -4.26
569.00 288.00 0.00 10.75 -4.27
570.00 288.00 0.00 10.77 -4.29
571.00 288.00 0.00 10.79 -4.30
572.00 288.00 0.00 10.80 -4.32
573.00 288.00 0.00 10.82 -4.33
574.00 288.00 0.00 10.83 -4.35
575.00 288.00 0.00 10.85 -4.37
576.00 288.00 0.00 10.87 -4.38
577.00 288.00 0.00 10.88 -4.39
578.00 288.00 0.00 10.90 -4.41
579.00 288.00 0.00 10.91 -4.42
580.00 288.00 0.00 10.93 -4.44
581.00 288.00 0.00 10.94 -4.45
582.00 288.00 0.00 10.96 -4.47
583.00 288.00 0.00 10.97 -4.48
584.00 288.00 0.00 10.99 -4.49
585.00 288.00 0.00 11.00 -4.51
586.00 288.00 0.00 11.02 -4.52
587.00 288.00 0.00 11.03 -4.54
588.00 288.00 0.00 11.05 -4.55
589.00 288.00 0.00 11.06 -4.56
590.00 288.00 0.00 11.07 -4.58
591.00 288.00 0.00 11.09 -4.59
592.00 288.00 0.00 11.10 -4.60
593.00 288.00 0.00 11.12 -4.61
594.00 288.00 0.00 11.13 -4.63
595.00 288.00 0.00 11.14 -4.64
596.00 288.00 0.00 11.16 -4.65
597.00 288.00 0.00 11.17 -4.66
598.00 288.00 0.00 11.18 -4.67
599.00 288.00 0.00 11.20 -4.69
600.00 288.00 0.00 11.21 -4.70
601.00 288.00 0.00 11.22 -4.71
602.00 288.00 0.00 11.24 -4.72
603.00 288.00 0.00 11.25 -4.73
604.00 288.00 0.00 11.26 -4.74
605.00 288.00 0.00 11.27 -4.76
606.00 288.00 0.00 11.29 -4.77
607.00 288.00 0.00 11.30 -4.78
608.00 288.00 0.00 11.31 -4.79
609.00 288.00 0.00 11.32 -4.80
610.00 288.00 0.00 11.33 -4.81
611.00 288.00 0.00 11.35 -4.82
612.00 288.00 0.00 11.36 -4.83
613.00 288.00 0.00 11.37 -4.84
614.00 288.00 0.00 11.38 -4.85
615.00 288.00 0.00 11.39 -4.86
616.00 288.00 0.00 11.40 -4.87
617.00 288.00 0.00 11.41 -4.88
618.00 288.00 0.00 11.43 -4.89
619.00 288.00 0.00 11.44 -4.90
620.00 288.00 0.00 11.45 -4.91
621.00 288.00 0.00 11.46 -4.92
622.00 288.00 0.00 11.47 -4.93
623.00 288.00 0.00 11.48 -4.94
624.00 288.00 0.00 11.49 -4.95
625.00 288.00 0.00 11.50 -4.95
626.00 288.00 0.00 11.51 -4.96
627.00 288.00 0.00 11.52 -4.97
628.00 288.00 0.00 11.53 -4.98
629.00 288.00 0.00 11.54 -4.99
630.00 288.00 0.00 11.55 -5.00
631.00 288.00 0.00 11.56 -5.00
632.00 288.00 0.00 11.57 -5.01
633.00 288.00 0.00 11.58 -5.02
634.00 288.00 0.00 11.59 -5.03
635.00 288.00 0.00 11.60 -5.04
636.00 288.00 0.00 11.61 -5.04
637.00 288.00 0.00 11.61 -5.05
638.00 288.00 0.00 11.62 -5.06
639.00 288.00 0.00 11.63 -5.07
640.00 288.00 0.00 11.64 -5.07
641.00 288.00 0.00 11.65 -5.08
642.00 288.00 0.00 11.66 -5.09
643.00 288.00 0.00 11.67 -5.09
644.00 288.00 0.00 11.67 -5.10
645.00 288.00 0.00 11.68 -5.11
646.00 288.00 0.00 11.69 -5.11
647.00 288.00 0.00 11.70 -5.12
648.00 288.00 0.00 11.71 -5.13
649.00 288.00 0.00 11.71 -5.13
650.00 288.00 0.00 11.72 -5.14
651.00 288.00 0.00 11.73 -5.15
652.00 288.00 0.00 11.74 -5.15
653.00 288.00 0.00 11.74 -5.16
654.00 288.00 0.00 11.75 -5.16
655.00 288.00 0.00 11.76 -5.17
656.00 288.00 0.00 11.76 -5.17
657.00 288.00 0.00 11.77 -5.18
658.00 288.00 0.00 11.78 -5.19
659.00 288.00 0.00 11.78 -5.19
660.00 288.00 0.00 11.79 -5.20
661.00 288.00 0.00 11.80 -5.20
662.00 288.00 0.00 11.80 -5.21
663.00 288.00 0.00 11.81 -5.21
664.00 288.00 0.00 11.81 -5.22
665.00 288.00 0.00 11.82 -5.22
666.00 288.00 0.00 11.83 -5.23
667.00 288.00 0.00 11.83 -5.23
668.00 288.00 0.00 11.84 -5.23
669.00 288.00 0.00 11.84 -5.24
670.00 288.00 0.00 11.85 -5.24
671.00 288.00 0.00 11.85 -5.25
672.00 288.00 0.00 11.86 -5.25
673.00 288.00 0.00 11.86 -5.25
674.00 288.00 0.00 11.87 -5.26
675.00 288.00 0.00 11.87 -5.26
676.00 288.00 0.00 11.88 -5.27
677.00 288.00 0.00 11.88 -5.27
678.00 288.00 0.00 11.89 -5.27
679.00 288.00 0.00 11.89 -5.28
680.00 288.00 0.00 11.89 -5.28
681.00 288.00 0.00 11.90 -5.28
682.00 288.00 0.00 11.90 -5.29
683.00 288.00 0.00 11.91 -5.29
684.00 288.00 0.00 11.91 -5.29
685.00 288.00 0.00 11.91 -5.29
686.00 288.00 0.00 11.92 -5.30
687.00 288.00 0.00 11.92 -5.30
688.00 288.00 0.00 11.92 -5.30
689.00 288.00 0.00 11.93 -5.31
690.00 288.00 0.00 11.93 -5.31
691.00 288.00 0.00 11.93 -5.31
692.00 288.00 0.00 11.94 -5.31
693.00 288.00 0.00 11.94 -5.31
694.00 288.00 0.00 11.94 -5.32
695.00 288.00 0.00 11.94 -5.32
696.00 288.00 0.00 11.95 -5.32
697.00 288.00 0.00 11.95 -5.32
698.00 288.00 0.00 11.95 -5.32
699.00 288.00 0.00 11.95 -5.33
700.00 288.00 0.00 11.95 -5.33
701.00 288.00 0.00 11.96 -5.33
702.00 288.00 0.00 11.96 -5.33
703.00 288.00 0.00 11.96 -5.33
704.00 288.00 0.00 11.96 -5.33
705.00 288.00 0.00 11.96 -5.33
706.00 288.00 0.00 11.96 -5.33
707.00 288.00 0.00 11.96 -5.33
708.00 288.00 0.00 11.97 -5.34
709.00 288.00 0.00 11.97 -5.34
710.00 288.00 0.00 11.97 -5.34
711.00 288.00 0.00 11.97 -5.34
712.00 288.00 0.00 11.97 -5.34
713.00 288.00 0.00 11.97 -5.34
714.00 288.00 0.00 11.97 -5.34
715.00 288.00 0.00 11.97 -5.34
716.00 288.00 0.00 11.97 -5.34
717.00 288.00 0.00 11.97 -5.34
718.00 288.00 0.00 11.97 -5.34
719.00 288.00 0.00 11.97 -5.34
720.00 288.00 0.00 11.97 -5.34
721.00 288.00 0.00 11.97 -5.34
722.00 288.00 0.00 11.97 -5.34
723.00 288.00 0.00 11.97 -5.34
724.00 288.00 0.00 11.97 -5.34
725.00 288.00 0.00 11.97 -5.34
726.00 288.00 0.00 11.97 -5.34
727.00 288.00 0.00 11.97 -5.34
728.00 288.00 0.00 11.97 -5.34
729.00 288.00 0.00 11.97 -5.34
730.00 288.00 0.00 11.97 -5.34
731.00 288.00 0.00 11.97 -5.34
732.00 288.00 0.00 11.97 -5.34
733.00 288.00 0.00 11.97 -5.34
734.00 288.00 0.00 11.97 -5.34
735.00 288.00 0.00 11.97 -5.34
736.00 288.00 0.00 11.97 -5.34
737.00 288.00 0.00 11.97 -5.34
738.00 288.00 0.00 11.97 -5.34
739.00 288.00 0.00 11.97 -5.34
740.00 288.00 0.00 11.97 -5.34
741.00 288.00 0.00 11.97 -5.34
742.00 288.00 0.00 11.97 -5.34
743.00 288.00 0.00 11.97 -5.34
744.00 288.00 0.00 11.97 -5.34
745.00 288.00 0.00 11.97 -5.34
746.00 288.00 0.00 11.97 -5.34
747.00 288.00 0.00 11.97 -5.34
748.00 288.00 0.00 11.97 -5.34
749.00 288.00 0.00 11.97 -5.34
750.00 288.00 0.00 11.97 -5.34
751.00 288.00 0.00 11.97 -5.34
752.00 288.00 0.00 11.97 -5.34
753.00 288.00 0.00 11.97 -5.34
754.00 288.00 0.00 11.97 -5.34
755.00 288.00 0.00 11.97 -5.34
756.00 288.00 0.00 11.97 -5.34
757.00 288.00 0.00 11.97 -5.34
758.00 288.00 0.00 11.97 -5.34
759.00 288.00 0.00 11.97 -5.34
760.00 288.00 0.00 11.97 -5.34
761.00 288.00 0.00 11.97 -5.34
762.00 288.00 0.00 11.97 -5.34
763.00 288.00 0.00 11.97 -5.34
764.00 288.00 0.00 11.97 -5.34
765.00 288.00 0.00 11.97 -5.34
766.00 288.00 0.00 11.97 -5.34
767.00 288.00 0.00 11.97 -5.34
768.00 288.00 0.00 11.97 -5.34
769.00 288.00 0.00 11.97 -5.34
770.00 288.00 0.00 11.97 -5.34
771.00 288.00 0.00 11.97 -5.34
772.00 288.00 0.00 11.97 -5.34
773.00 288.00 0.00 11.97 -5.34
774.00 288.00 0.00 11.97 -5.34
775.00 288.00 0.00 11.97 -5.34
776.00 288.00 0.00 11.97 -5.34
777.00 288.00 0.00 11.97 -5.34
778.00 288.00 0.00 11.97 -5.34
779.00 288.00 0.00 11.97 -5.34
780.00 288.00 0.00 11.97 -5.34
781.00 288.00 0.00 11.97 -5.34
782.00 288.00 0.00 11.97 -5.34
783.00 288.00 0.00 11.97 -5.34
784.00 288.00 0.00 11.97 -5.34
785.00 288.00 0.00 11.97 -5.34
786.00 288.00 0.00 11.97 -5.34
787.00 288.00 0.00 11.97 -5.34
788.00 288.00 0.00 11.97 -5.34
789.00 288.00 0.00 11.97 -5.34
790.00 288.00 0.00 11.97 -5.34
791.00 288.00 0.00 11.97 -5.34
792.00 288.00 0.00 11.97 -5.34
793.00 288.00 0.00 11.97 -5.34
794.00 288.00 0.00 11.97 -5.34
795.00 288.00 0.00 11.97 -5.34
796.00 288.00 0.00 11.97 -5.34
797.00 288.00 0.00 11.97 -5.34
798.00 288.00 0.00 11.97 -5.34
799.00 288.00 0.00 11.97 -5.34
800.00 288.00 0.00 11.97 -5.34
801.00 288.00 0.00 11.97 -5.34
802.00 288.00 0.00 11.97 -5.34
803.00 288.00 0.00 11.97 -5.34
804.00 288.00 0.00 11.97 -5.34
805.00 288.00 0.00 11.97 -5.34
806.00 288.00 0.00 11.97 -5.34
807.00 288.00 0.00 11.97 -5.34
808.00 288.00 0.00 11.97 -5.34
809.00 288.00 0.00 11.97 -5.34
810.00 288.00 0.00 11.97 -5.34
811.00 288.00 0.00 11.97 -5.34
812.00 288.00 0.00 11.97 -5.34
813.00 288.00 0.00 11.97 -5.34
814.00 288.00 0.00 11.97 -5.34
815.00 288.00 0.00 11.97 -5.34
816.00 288.00 0.00 11.97 -5.34
817.00 288.00 0.00 11.97 -5.34
818.00 288.00 0.00 11.97 -5.34
819.00 288.00 0.00 11.97 -5.34
820.00 288.00 0.00 11.97 -5.34
821.00 288.00 0.00 11.97 -5.34
822.00 288.00 0.00 11.97 -5.34
823.00 288.00 0.00 11.97 -5.34
824.00 288.00 0.00 11.97 -5.34
825.00 288.00 0.00 11.97 -5.34
826.00 288.00 0.00 11.97 -5.34
827.00 288.00 0.00 11.97 -5.34
828.00 288.00 0.00 11.97 -5.34
829.00 288.00 0.00 11.97 -5.34
830.00 288.00 0.00 11.97 -5.34
831.00 288.00 0.00 11.97 -5.34
