1000.00 288.00 00.00
0.00 288.00 0.00 15.70 -1.06
1.00 288.00 0.00 15.70 -1.06
2.00 288.00 0.00 15.70 -1.06
3.00 288.00 0.00 15.70 -1.06
4.00 288.00 0.00 15.70 -1.06
5.00 288.00 0.00 15.70 -1.06
6.00 288.00 0.00 15.70 -1.06
7.00 288.00 0.00 15.70 -1.06
8.00 288.00 0.00 15.70 -1.06
9.00 288.00 0.00 15.70 -1.06
10.00 288.00 0.00 15.70 -1.06
11.00 288.00 0.00 15.70 -1.06
12.00 288.00 0.00 15.70 -1.06
13.00 288.00 0.00 15.70 -1.06
14.00 288.00 0.00 15.70 -1.06
15.00 288.00 0.00 15.70 -1.06
16.00 288.00 0.00 15.70 -1.06
17.00 288.00 0.00 15.70 -1.06
18.00 288.00 0.00 15.70 -1.06
19.00 288.00 0.00 15.70 -1.06
20.00 288.00 0.00 15.70 -1.06
21.00 288.00 0.00 15.70 -1.06
22.00 288.00 0.00 15.70 -1.06
23.00 288.00 0.00 15.70 -1.06
24.00 288.00 0.00 15.70 -1.06
25.00 288.00 0.00 15.70 -1.06
26.00 288.00 0.00 15.70 -1.06
27.00 288.00 0.00 15.70 -1.06
28.00 288.00 0.00 15.70 -1.06
29.00 288.00 0.00 15.70 -1.06
30.00 288.00 0.00 15.70 -1.06
31.00 288.00 0.00 15.70 -1.06
32.00 288.00 0.00 15.70 -1.06
33.00 288.00 0.00 15.70 -1.06
34.00 288.00 0.00 15.70 -1.06
35.00 288.00 0.00 15.70 -1.06
36.00 288.00 0.00 15.70 -1.06
37.00 288.00 0.00 15.70 -1.06
38.00 288.00 0.00 15.70 -1.06
39.00 288.00 0.00 15.70 -1.06
40.00 288.00 0.00 15.70 -1.06
41.00 288.00 0.00 15.70 -1.06
42.00 288.00 0.00 15.70 -1.06
43.00 288.00 0.00 15.70 -1.06
44.00 288.00 0.00 15.70 -1.06
45.00 288.00 0.00 15.70 -1.06
46.00 288.00 0.00 15.69 -1.06
47.00 288.00 0.00 15.69 -1.06
48.00 288.00 0.00 15.69 -1.06
49.00 288.00 0.00 15.69 -1.06
50.00 288.00 0.00 15.69 -1.06
51.00 288.00 0.00 15.69 -1.06
52.00 288.00 0.00 15.68 -1.06
53.00 288.00 0.00 15.68 -1.06
54.00 288.00 0.00 15.68 -1.06
55.00 288.00 0.00 15.68 -1.06
56.00 288.00 0.00 15.67 -1.06
57.00 288.00 0.00 15.67 -1.05
58.00 288.00 0.00 15.67 -1.05
59.00 288.00 0.00 15.66 -1.05
60.00 288.00 0.00 15.66 -1.05
61.00 288.00 0.00 15.65 -1.05
62.00 288.00 0.00 15.65 -1.05
63.00 288.00 0.00 15.65 -1.05
64.00 288.00 0.00 15.64 -1.05
65.00 288.00 0.00 15.64 -1.05
66.00 288.00 0.00 15.63 -1.05
67.00 288.00 0.00 15.63 -1.05
68.00 288.00 0.00 15.62 -1.05
69.00 288.00 0.00 15.62 -1.05
70.00 288.00 0.00 15.61 -1.05
71.00 288.00 0.00 15.60 -1.05
72.00 288.00 0.00 15.60 -1.05
73.00 288.00 0.00 15.59 -1.05
74.00 288.00 0.00 15.59 -1.04
75.00 288.00 0.00 15.58 -1.04
76.00 288.00 0.00 15.57 -1.04
77.00 288.00 0.00 15.56 -1.04
78.00 288.00 0.00 15.56 -1.04
79.00 288.00 0.00 15.55 -1.04
80.00 288.00 0.00 15.54 -1.04
81.00 288.00 0.00 15.53 -1.04
82.00 288.00 0.00 15.53 -1.04
83.00 288.00 0.00 15.52 -1.04
84.00 288.00 0.00 15.51 -1.04
85.00 288.00 0.00 15.50 -1.03
86.00 288.00 0.00 15.49 -1.03
87.00 288.00 0.00 15.48 -1.03
88.00 288.00 0.00 15.47 -1.03
89.00 288.00 0.00 15.46 -1.03
90.00 288.00 0.00 15.45 -1.03
91.00 288.00 0.00 15.45 -1.03
92.00 288.00 0.00 15.44 -1.03
93.00 288.00 0.00 15.42 -1.02
94.00 288.00 0.00 15.41 -1.02
95.00 288.00 0.00 15.40 -1.02
96.00 288.00 0.00 15.39 -1.02
97.00 288.00 0.00 15.38 -1.02
98.00 288.00 0.00 15.37 -1.02
99.00 288.00 0.00 15.36 -1.02
100.00 288.00 0.00 15.35 -1.02
101.00 288.00 0.00 15.34 -1.01
102.00 288.00 0.00 15.32 -1.01
103.00 288.00 0.00 15.31 -1.01
104.00 288.00 0.00 15.30 -1.01
105.00 288.00 0.00 15.29 -1.01
106.00 288.00 0.00 15.27 -1.01
107.00 288.00 0.00 15.26 -1.01
108.00 288.00 0.00 15.25 -1.00
109.00 288.00 0.00 15.24 -1.00
110.00 288.00 0.00 15.22 -1.00
111.00 288.00 0.00 15.21 -1.00
112.00 288.00 0.00 15.19 -1.00
113.00 288.00 0.00 15.18 -1.00
114.00 288.00 0.00 15.17 -0.99
115.00 288.00 0.00 15.15 -0.99
116.00 288.00 0.00 15.14 -0.99
117.00 288.00 0.00 15.12 -0.99
118.00 288.00 0.00 15.11 -0.99
119.00 288.00 0.00 15.09 -0.98
120.00 288.00 0.00 15.08 -0.98
121.00 288.00 0.00 15.06 -0.98
122.00 288.00 0.00 15.04 -0.98
123.00 288.00 0.00 15.03 -0.98
124.00 288.00 0.00 15.01 -0.97
125.00 288.00 0.00 15.00 -0.97
126.00 288.00 0.00 14.98 -0.97
127.00 288.00 0.00 14.96 -0.97
128.00 288.00 0.00 14.95 -0.97
129.00 288.00 0.00 14.93 -0.96
130.00 288.00 0.00 14.91 -0.96
131.00 288.00 0.00 14.89 -0.96
132.00 288.00 0.00 14.88 -0.96
133.00 288.00 0.00 14.86 -0.96
134.00 288.00 0.00 14.84 -0.95
135.00 288.00 0.00 14.82 -0.95
136.00 288.00 0.00 14.80 -0.95
137.00 288.00 0.00 14.78 -0.95
138.00 288.00 0.00 14.76 -0.94
139.00 288.00 0.00 14.75 -0.94
140.00 288.00 0.00 14.73 -0.94
141.00 288.00 0.00 14.71 -0.94
142.00 288.00 0.00 14.69 -0.94
143.00 288.00 0.00 14.67 -0.93
144.00 288.00 0.00 14.65 -0.93
145.00 288.00 0.00 14.63 -0.93
146.00 288.00 0.00 14.61 -0.93
147.00 288.00 0.00 14.59 -0.92
148.00 288.00 0.00 14.56 -0.92
149.00 288.00 0.00 14.54 -0.92
150.00 288.00 0.00 14.52 -0.92
151.00 288.00 0.00 14.50 -0.91
152.00 288.00 0.00 14.48 -0.91
153.00 288.00 0.00 14.46 -0.91
154.00 288.00 0.00 14.43 -0.90
155.00 288.00 0.00 14.41 -0.90
156.00 288.00 0.00 14.39 -0.90
157.00 288.00 0.00 14.37 -0.90
158.00 288.00 0.00 14.34 -0.89
159.00 288.00 0.00 14.32 -0.89
160.00 288.00 0.00 14.30 -0.89
161.00 288.00 0.00 14.27 -0.88
162.00 288.00 0.00 14.25 -0.88
163.00 288.00 0.00 14.23 -0.88
164.00 288.00 0.00 14.20 -0.88
165.00 288.00 0.00 14.18 -0.87
166.00 288.00 0.00 14.15 -0.87
167.00 288.00 0.00 14.13 -0.87
168.00 288.00 0.00 14.11 -0.86
169.00 288.00 0.00 14.08 -0.86
170.00 288.00 0.00 14.05 -0.86
171.00 288.00 0.00 14.03 -0.86
172.00 288.00 0.00 14.00 -0.85
173.00 288.00 0.00 13.98 -0.85
174.00 288.00 0.00 13.95 -0.85
175.00 288.00 0.00 13.93 -0.84
176.00 288.00 0.00 13.90 -0.84
177.00 288.00 0.00 13.87 -0.84
178.00 288.00 0.00 13.85 -0.83
179.00 288.00 0.00 13.82 -0.83
180.00 288.00 0.00 13.79 -0.83
181.00 288.00 0.00 13.76 -0.82
182.00 288.00 0.00 13.74 -0.82
183.00 288.00 0.00 13.71 -0.82
184.00 288.00 0.00 13.68 -0.81
185.00 288.00 0.00 13.65 -0.81
186.00 288.00 0.00 13.63 -0.81
187.00 288.00 0.00 13.60 -0.80
188.00 288.00 0.00 13.57 -0.80
189.00 288.00 0.00 13.54 -0.80
190.00 288.00 0.00 13.51 -0.79
191.00 288.00 0.00 13.48 -0.79
192.00 288.00 0.00 13.45 -0.78
193.00 288.00 0.00 13.42 -0.78
194.00 288.00 0.00 13.39 -0.78
195.00 288.00 0.00 13.36 -0.77
196.00 288.00 0.00 13.33 -0.77
197.00 288.00 0.00 13.30 -0.77
198.00 288.00 0.00 13.27 -0.76
199.00 288.00 0.00 13.24 -0.76
200.00 288.00 0.00 13.21 -0.76
201.00 288.00 0.00 13.18 -0.75
202.00 288.00 0.00 13.15 -0.75
203.00 288.00 0.00 13.11 -0.74
204.00 288.00 0.00 13.08 -0.74
205.00 288.00 0.00 13.05 -0.74
206.00 288.00 0.00 13.02 -0.73
207.00 288.00 0.00 12.99 -0.73
208.00 288.00 0.00 12.95 -0.72
209.00 288.00 0.00 12.92 -0.72
210.00 288.00 0.00 12.89 -0.72
211.00 288.00 0.00 12.85 -0.71
212.00 288.00 0.00 12.82 -0.71
213.00 288.00 0.00 12.79 -0.70
214.00 288.00 0.00 12.75 -0.70
215.00 288.00 0.00 12.72 -0.70
216.00 288.00 0.00 12.69 -0.69
217.00 288.00 0.00 12.65 -0.69
218.00 288.00 0.00 12.62 -0.68
219.00 288.00 0.00 12.58 -0.68
220.00 288.00 0.00 12.55 -0.67
221.00 288.00 0.00 12.51 -0.67
222.00 288.00 0.00 12.48 -0.67
223.00 288.00 0.00 12.44 -0.66
224.00 288.00 0.00 12.41 -0.66
225.00 288.00 0.00 12.37 -0.65
226.00 288.00 0.00 12.34 -0.65
227.00 288.00 0.00 12.30 -0.64
228.00 288.00 0.00 12.27 -0.64
229.00 288.00 0.00 12.23 -0.64
230.00 288.00 0.00 12.20 -0.63
231.00 288.00 0.00 12.16 -0.63
232.00 288.00 0.00 12.13 -0.62
233.00 288.00 0.00 12.09 -0.62
234.00 288.00 0.00 12.06 -0.61
235.00 288.00 0.00 12.02 -0.61
236.00 288.00 0.00 11.99 -0.61
237.00 288.00 0.00 11.95 -0.60
238.00 288.00 0.00 11.92 -0.60
239.00 288.00 0.00 11.88 -0.59
240.00 288.00 0.00 11.85 -0.59
241.00 288.00 0.00 11.81 -0.59
242.00 288.00 0.00 11.78 -0.58
243.00 288.00 0.00 11.74 -0.58
244.00 288.00 0.00 11.71 -0.57
245.00 288.00 0.00 11.67 -0.57
246.00 288.00 0.00 11.64 -0.56
247.00 288.00 0.00 11.60 -0.56
248.00 288.00 0.00 11.57 -0.56
249.00 288.00 0.00 11.53 -0.55
250.00 288.00 0.00 11.50 -0.55
251.00 288.00 0.00 11.46 -0.54
252.00 288.00 0.00 11.43 -0.54
253.00 288.00 0.00 11.39 -0.53
254.00 288.00 0.00 11.36 -0.53
255.00 288.00 0.00 11.32 -0.53
256.00 288.00 0.00 11.29 -0.52
257.00 288.00 0.00 11.25 -0.52
258.00 288.00 0.00 11.22 -0.51
259.00 288.00 0.00 11.18 -0.51
260.00 288.00 0.00 11.15 -0.50
261.00 288.00 0.00 11.11 -0.50
262.00 288.00 0.00 11.08 -0.50
263.00 288.00 0.00 11.04 -0.49
264.00 288.00 0.00 11.01 -0.49
265.00 288.00 0.00 10.97 -0.48
266.00 288.00 0.00 10.94 -0.48
267.00 288.00 0.00 10.90 -0.47
268.00 288.00 0.00 10.87 -0.47
269.00 288.00 0.00 10.83 -0.47
270.00 288.00 0.00 10.80 -0.46
271.00 288.00 0.00 10.76 -0.46
272.00 288.00 0.00 10.73 -0.45
273.00 288.00 0.00 10.69 -0.45
274.00 288.00 0.00 10.66 -0.44
275.00 288.00 0.00 10.62 -0.44
276.00 288.00 0.00 10.59 -0.44
277.00 288.00 0.00 10.55 -0.43
278.00 288.00 0.00 10.52 -0.43
279.00 288.00 0.00 10.48 -0.42
280.00 288.00 0.00 10.45 -0.42
281.00 288.00 0.00 10.41 -0.41
282.00 288.00 0.00 10.38 -0.41
283.00 288.00 0.00 10.34 -0.41
284.00 288.00 0.00 10.31 -0.40
285.00 288.00 0.00 10.27 -0.40
286.00 288.00 0.00 10.24 -0.39
287.00 288.00 0.00 10.20 -0.39
288.00 288.00 0.00 10.17 -0.38
289.00 288.00 0.00 10.13 -0.38
290.00 288.00 0.00 10.10 -0.38
291.00 288.00 0.00 10.06 -0.37
292.00 288.00 0.00 10.03 -0.37
293.00 288.00 0.00 9.99 -0.36
294.00 288.00 0.00 9.96 -0.36
295.00 288.00 0.00 9.92 -0.35
296.00 288.00 0.00 9.89 -0.35
297.00 288.00 0.00 9.85 -0.35
298.00 288.00 0.00 9.82 -0.34
299.00 288.00 0.00 9.78 -0.34
300.00 288.00 0.00 9.75 -0.33
301.00 288.00 0.00 9.71 -0.33
302.00 288.00 0.00 9.68 -0.32
303.00 288.00 0.00 9.64 -0.32
304.00 288.00 0.00 9.61 -0.32
305.00 288.00 0.00 9.57 -0.31
306.00 288.00 0.00 9.54 -0.31
307.00 288.00 0.00 9.50 -0.30
308.00 288.00 0.00 9.47 -0.30
309.00 288.00 0.00 9.43 -0.29
310.00 288.00 0.00 9.40 -0.29
311.00 288.00 0.00 9.36 -0.29
312.00 288.00 0.00 9.33 -0.28
313.00 288.00 0.00 9.29 -0.28
314.00 288.00 0.00 9.26 -0.27
315.00 288.00 0.00 9.22 -0.27
316.00 288.00 0.00 9.19 -0.27
317.00 288.00 0.00 9.15 -0.26
318.00 288.00 0.00 9.12 -0.26
319.00 288.00 0.00 9.08 -0.25
320.00 288.00 0.00 9.05 -0.25
321.00 288.00 0.00 9.01 -0.24
322.00 288.00 0.00 8.98 -0.24
323.00 288.00 0.00 8.94 -0.24
324.00 288.00 0.00 8.91 -0.23
325.00 288.00 0.00 8.87 -0.23
326.00 288.00 0.00 8.84 -0.22
327.00 288.00 0.00 8.80 -0.22
328.00 288.00 0.00 8.77 -0.21
329.00 288.00 0.00 8.73 -0.21
330.00 288.00 0.00 8.70 -0.21
331.00 288.00 0.00 8.66 -0.20
332.00 288.00 0.00 8.63 -0.20
333.00 288.00 0.00 8.59 -0.19
334.00 288.00 0.00 8.56 -0.19
335.00 288.00 0.00 8.52 -0.18
336.00 288.00 0.00 8.49 -0.18
337.00 288.00 0.00 8.45 -0.18
338.00 288.00 0.00 8.42 -0.17
339.00 288.00 0.00 8.38 -0.17
340.00 288.00 0.00 8.35 -0.16
341.00 288.00 0.00 8.31 -0.16
342.00 288.00 0.00 8.28 -0.15
343.00 288.00 0.00 8.24 -0.15
344.00 288.00 0.00 8.21 -0.15
345.00 288.00 0.00 8.17 -0.14
346.00 288.00 0.00 8.14 -0.14
347.00 288.00 0.00 8.10 -0.13
348.00 288.00 0.00 8.07 -0.13
349.00 288.00 0.00 8.03 -0.12
350.00 288.00 0.00 8.00 -0.12
351.00 288.00 0.00 7.96 -0.12
352.00 288.00 0.00 7.93 -0.11
353.00 288.00 0.00 7.89 -0.11
354.00 288.00 0.00 7.86 -0.10
355.00 288.00 0.00 7.82 -0.10
356.00 288.00 0.00 7.79 -0.09
357.00 288.00 0.00 7.75 -0.09
358.00 288.00 0.00 7.72 -0.09
359.00 288.00 0.00 7.68 -0.08
360.00 288.00 0.00 7.65 -0.08
361.00 288.00 0.00 7.61 -0.07
362.00 288.00 0.00 7.58 -0.07
363.00 288.00 0.00 7.54 -0.06
364.00 288.00 0.00 7.51 -0.06
365.00 288.00 0.00 7.47 -0.06
366.00 288.00 0.00 7.44 -0.05
367.00 288.00 0.00 7.40 -0.05
368.00 288.00 0.00 7.37 -0.04
369.00 288.00 0.00 7.33 -0.04
370.00 288.00 0.00 7.30 -0.03
371.00 288.00 0.00 7.26 -0.03
372.00 288.00 0.00 7.23 -0.03
373.00 288.00 0.00 7.19 -0.02
374.00 288.00 0.00 7.16 -0.02
375.00 288.00 0.00 7.12 -0.01
376.00 288.00 0.00 7.09 -0.01
377.00 288.00 0.00 7.05 -0.00
378.00 288.00 0.00 7.02 0.00
379.00 288.00 0.00 6.98 0.00
380.00 288.00 0.00 6.95 0.01
381.00 288.00 0.00 6.91 0.01
382.00 288.00 0.00 6.88 0.02
383.00 288.00 0.00 6.84 0.02
384.00 288.00 0.00 6.81 0.03
385.00 288.00 0.00 6.77 0.03
386.00 288.00 0.00 6.74 0.03
387.00 288.00 0.00 6.70 0.04
388.00 288.00 0.00 6.67 0.04
389.00 288.00 0.00 6.63 0.05
390.00 288.00 0.00 6.60 0.05
391.00 288.00 0.00 6.56 0.06
392.00 288.00 0.00 6.53 0.06
393.00 288.00 0.00 6.49 0.06
394.00 288.00 0.00 6.46 0.07
395.00 288.00 0.00 6.42 0.07
396.00 288.00 0.00 6.39 0.08
397.00 288.00 0.00 6.35 0.08
398.00 288.00 0.00 6.32 0.09
399.00 288.00 0.00 6.28 0.09
400.00 288.00 0.00 6.25 0.09
401.00 288.00 0.00 6.21 0.10
402.00 288.00 0.00 6.18 0.10
403.00 288.00 0.00 6.14 0.11
404.00 288.00 0.00 6.11 0.11
405.00 288.00 0.00 6.07 0.12
406.00 288.00 0.00 6.04 0.12
407.00 288.00 0.00 6.00 0.12
408.00 288.00 0.00 5.97 0.13
409.00 288.00 0.00 5.93 0.13
410.00 288.00 0.00 5.90 0.14
411.00 288.00 0.00 5.86 0.14
412.00 288.00 0.00 5.83 0.15
413.00 288.00 0.00 5.79 0.15
414.00 288.00 0.00 5.76 0.15
415.00 288.00 0.00 5.72 0.16
416.00 288.00 0.00 5.69 0.16
417.00 288.00 0.00 5.65 0.17
418.00 288.00 0.00 5.62 0.17
419.00 288.00 0.00 5.58 0.18
420.00 288.00 0.00 5.55 0.18
421.00 288.00 0.00 5.51 0.18
422.00 288.00 0.00 5.48 0.19
423.00 288.00 0.00 5.44 0.19
424.00 288.00 0.00 5.41 0.20
425.00 288.00 0.00 5.37 0.20
426.00 288.00 0.00 5.34 0.21
427.00 288.00 0.00 5.30 0.21
428.00 288.00 0.00 5.27 0.21
429.00 288.00 0.00 5.23 0.22
430.00 288.00 0.00 5.20 0.22
431.00 288.00 0.00 5.16 0.23
432.00 288.00 0.00 5.13 0.23
433.00 288.00 0.00 5.09 0.24
434.00 288.00 0.00 5.06 0.24
435.00 288.00 0.00 5.02 0.24
436.00 288.00 0.00 4.99 0.25
437.00 288.00 0.00 4.95 0.25
438.00 288.00 0.00 4.92 0.26
439.00 288.00 0.00 4.88 0.26
440.00 288.00 0.00 4.85 0.27
441.00 288.00 0.00 4.81 0.27
442.00 288.00 0.00 4.78 0.27
443.00 288.00 0.00 4.74 0.28
444.00 288.00 0.00 4.71 0.28
445.00 288.00 0.00 4.67 0.29
446.00 288.00 0.00 4.64 0.29
447.00 288.00 0.00 4.60 0.29
448.00 288.00 0.00 4.57 0.30
449.00 288.00 0.00 4.53 0.30
450.00 288.00 0.00 4.50 0.31
451.00 288.00 0.00 4.46 0.31
452.00 288.00 0.00 4.43 0.32
453.00 288.00 0.00 4.39 0.32
454.00 288.00 0.00 4.36 0.32
455.00 288.00 0.00 4.32 0.33
456.00 288.00 0.00 4.29 0.33
457.00 288.00 0.00 4.25 0.34
458.00 288.00 0.00 4.22 0.34
459.00 288.00 0.00 4.18 0.35
460.00 288.00 0.00 4.15 0.35
461.00 288.00 0.00 4.11 0.35
462.00 288.00 0.00 4.08 0.36
463.00 288.00 0.00 4.04 0.36
464.00 288.00 0.00 4.01 0.37
465.00 288.00 0.00 3.97 0.37
466.00 288.00 0.00 3.94 0.38
467.00 288.00 0.00 3.90 0.38
468.00 288.00 0.00 3.87 0.38
469.00 288.00 0.00 3.83 0.39
470.00 288.00 0.00 3.80 0.39
471.00 288.00 0.00 3.76 0.40
472.00 288.00 0.00 3.73 0.40
473.00 288.00 0.00 3.69 0.41
474.00 288.00 0.00 3.66 0.41
475.00 288.00 0.00 3.62 0.41
476.00 288.00 0.00 3.59 0.42
477.00 288.00 0.00 3.55 0.42
478.00 288.00 0.00 3.52 0.43
479.00 288.00 0.00 3.48 0.43
480.00 288.00 0.00 3.45 0.44
481.00 288.00 0.00 3.41 0.44
482.00 288.00 0.00 3.38 0.44
483.00 288.00 0.00 3.34 0.45
484.00 288.00 0.00 3.31 0.45
485.00 288.00 0.00 3.27 0.46
486.00 288.00 0.00 3.24 0.46
487.00 288.00 0.00 3.20 0.47
488.00 288.00 0.00 3.17 0.47
489.00 288.00 0.00 3.13 0.47
490.00 288.00 0.00 3.10 0.48
491.00 288.00 0.00 3.06 0.48
492.00 288.00 0.00 3.03 0.49
493.00 288.00 0.00 2.99 0.49
494.00 288.00 0.00 2.96 0.50
495.00 288.00 0.00 2.92 0.50
496.00 288.00 0.00 2.89 0.50
497.00 288.00 0.00 2.85 0.51
498.00 288.00 0.00 2.82 0.51
499.00 288.00 0.00 2.78 0.52
500.00 288.00 0.00 2.75 0.52
501.00 288.00 0.00 2.71 0.53
502.00 288.00 0.00 2.68 0.53
503.00 288.00 0.00 2.64 0.53
504.00 288.00 0.00 2.61 0.54
505.00 288.00 0.00 2.57 0.54
506.00 288.00 0.00 2.54 0.55
507.00 288.00 0.00 2.50 0.55
508.00 288.00 0.00 2.47 0.56
509.00 288.00 0.00 2.43 0.56
510.00 288.00 0.00 2.40 0.56
511.00 288.00 0.00 2.36 0.57
512.00 288.00 0.00 2.33 0.57
513.00 288.00 0.00 2.29 0.58
514.00 288.00 0.00 2.26 0.58
515.00 288.00 0.00 2.22 0.59
516.00 288.00 0.00 2.19 0.59
517.00 288.00 0.00 2.15 0.59
518.00 288.00 0.00 2.12 0.60
519.00 288.00 0.00 2.08 0.60
520.00 288.00 0.00 2.05 0.61
521.00 288.00 0.00 2.01 0.61
522.00 288.00 0.00 1.98 0.61
523.00 288.00 0.00 1.94 0.62
524.00 288.00 0.00 1.91 0.62
525.00 288.00 0.00 1.87 0.63
526.00 288.00 0.00 1.84 0.63
527.00 288.00 0.00 1.80 0.64
528.00 288.00 0.00 1.77 0.64
529.00 288.00 0.00 1.73 0.64
530.00 288.00 0.00 1.70 0.65
531.00 288.00 0.00 1.66 0.65
532.00 288.00 0.00 1.63 0.66
533.00 288.00 0.00 1.59 0.66
534.00 288.00 0.00 1.56 0.67
535.00 288.00 0.00 1.52 0.67
536.00 288.00 0.00 1.49 0.67
537.00 288.00 0.00 1.45 0.68
538.00 288.00 0.00 1.42 0.68
539.00 288.00 0.00 1.38 0.69
540.00 288.00 0.00 1.35 0.69
541.00 288.00 0.00 1.31 0.70
542.00 288.00 0.00 1.28 0.70
543.00 288.00 0.00 1.25 0.70
544.00 288.00 0.00 1.21 0.71
545.00 288.00 0.00 1.18 0.71
546.00 288.00 0.00 1.15 0.72
547.00 288.00 0.00 1.11 0.72
548.00 288.00 0.00 1.08 0.72
549.00 288.00 0.00 1.05 0.73
550.00 288.00 0.00 1.01 0.73
551.00 288.00 0.00 0.98 0.74
552.00 288.00 0.00 0.95 0.74
553.00 288.00 0.00 0.92 0.74
554.00 288.00 0.00 0.89 0.75
555.00 288.00 0.00 0.85 0.75
556.00 288.00 0.00 0.82 0.76
557.00 288.00 0.00 0.79 0.76
558.00 288.00 0.00 0.76 0.76
559.00 288.00 0.00 0.73 0.77
560.00 288.00 0.00 0.70 0.77
561.00 288.00 0.00 0.67 0.77
562.00 288.00 0.00 0.64 0.78
563.00 288.00 0.00 0.61 0.78
564.00 288.00 0.00 0.58 0.78
565.00 288.00 0.00 0.55 0.79
566.00 288.00 0.00 0.52 0.79
567.00 288.00 0.00 0.49 0.80
568.00 288.00 0.00 0.46 0.80
569.00 288.00 0.00 0.43 0.80
570.00 288.00 0.00 0.40 0.81
571.00 288.00 0.00 0.37 0.81
572.00 288.00 0.00 0.35 0.81
573.00 288.00 0.00 0.32 0.82
574.00 288.00 0.00 0.29 0.82
575.00 288.00 0.00 0.26 0.82
576.00 288.00 0.00 0.24 0.83
577.00 288.00 0.00 0.21 0.83
578.00 288.00 0.00 0.18 0.83
579.00 288.00 0.00 0.15 0.84
580.00 288.00 0.00 0.13 0.84
581.00 288.00 0.00 0.10 0.84
582.00 288.00 0.00 0.07 0.85
583.00 288.00 0.00 0.05 0.85
584.00 288.00 0.00 0.02 0.85
585.00 288.00 0.00 -0.00 0.86
586.00 288.00 0.00 -0.03 0.86
587.00 288.00 0.00 -0.05 0.86
588.00 288.00 0.00 -0.08 0.86
589.00 288.00 0.00 -0.11 0.87
590.00 288.00 0.00 -0.13 0.87
591.00 288.00 0.00 -0.15 0.87
592.00 288.00 0.00 -0.18 0.88
593.00 288.00 0.00 -0.20 0.88
594.00 288.00 0.00 -0.23 0.88
595.00 288.00 0.00 -0.25 0.88
596.00 288.00 0.00 -0.27 0.89
597.00 288.00 0.00 -0.30 0.89
598.00 288.00 0.00 -0.32 0.89
599.00 288.00 0.00 -0.34 0.90
600.00 288.00 0.00 -0.37 0.90
601.00 288.00 0.00 -0.39 0.90
602.00 288.00 0.00 -0.41 0.90
603.00 288.00 0.00 -0.43 0.91
604.00 288.00 0.00 -0.46 0.91
605.00 288.00 0.00 -0.48 0.91
606.00 288.00 0.00 -0.50 0.92
607.00 288.00 0.00 -0.52 0.92
608.00 288.00 0.00 -0.54 0.92
609.00 288.00 0.00 -0.56 0.92
610.00 288.00 0.00 -0.59 0.93
611.00 288.00 0.00 -0.61 0.93
612.00 288.00 0.00 -0.63 0.93
613.00 288.00 0.00 -0.65 0.93
614.00 288.00 0.00 -0.67 0.94
615.00 288.00 0.00 -0.69 0.94
616.00 288.00 0.00 -0.71 0.94
617.00 288.00 0.00 -0.73 0.94
618.00 288.00 0.00 -0.75 0.94
619.00 288.00 0.00 -0.76 0.95
620.00 288.00 0.00 -0.78 0.95
621.00 288.00 0.00 -0.80 0.95
622.00 288.00 0.00 -0.82 0.95
623.00 288.00 0.00 -0.84 0.96
624.00 288.00 0.00 -0.86 0.96
625.00 288.00 0.00 -0.88 0.96
626.00 288.00 0.00 -0.89 0.96
627.00 288.00 0.00 -0.91 0.96
628.00 288.00 0.00 -0.93 0.97
629.00 288.00 0.00 -0.95 0.97
630.00 288.00 0.00 -0.96 0.97
631.00 288.00 0.00 -0.98 0.97
632.00 288.00 0.00 -1.00 0.97
633.00 288.00 0.00 -1.01 0.98
634.00 288.00 0.00 -1.03 0.98
635.00 288.00 0.00 -1.04 0.98
636.00 288.00 0.00 -1.06 0.98
637.00 288.00 0.00 -1.08 0.98
638.00 288.00 0.00 -1.09 0.99
639.00 288.00 0.00 -1.11 0.99
640.00 288.00 0.00 -1.12 0.99
641.00 288.00 0.00 -1.14 0.99
642.00 288.00 0.00 -1.15 0.99
643.00 288.00 0.00 -1.17 1.00
644.00 288.00 0.00 -1.18 1.00
645.00 288.00 0.00 -1.19 1.00
646.00 288.00 0.00 -1.21 1.00
647.00 288.00 0.00 -1.22 1.00
648.00 288.00 0.00 -1.24 1.00
649.00 288.00 0.00 -1.25 1.01
650.00 288.00 0.00 -1.26 1.01
651.00 288.00 0.00 -1.27 1.01
652.00 288.00 0.00 -1.29 1.01
653.00 288.00 0.00 -1.30 1.01
654.00 288.00 0.00 -1.31 1.01
655.00 288.00 0.00 -1.32 1.01
656.00 288.00 0.00 -1.34 1.02
657.00 288.00 0.00 -1.35 1.02
658.00 288.00 0.00 -1.36 1.02
659.00 288.00 0.00 -1.37 1.02
660.00 288.00 0.00 -1.38 1.02
661.00 288.00 0.00 -1.39 1.02
662.00 288.00 0.00 -1.40 1.02
663.00 288.00 0.00 -1.41 1.02
664.00 288.00 0.00 -1.42 1.03
665.00 288.00 0.00 -1.44 1.03
666.00 288.00 0.00 -1.45 1.03
667.00 288.00 0.00 -1.45 1.03
668.00 288.00 0.00 -1.46 1.03
669.00 288.00 0.00 -1.47 1.03
670.00 288.00 0.00 -1.48 1.03
671.00 288.00 0.00 -1.49 1.03
672.00 288.00 0.00 -1.50 1.04
673.00 288.00 0.00 -1.51 1.04
674.00 288.00 0.00 -1.52 1.04
675.00 288.00 0.00 -1.53 1.04
676.00 288.00 0.00 -1.53 1.04
677.00 288.00 0.00 -1.54 1.04
678.00 288.00 0.00 -1.55 1.04
679.00 288.00 0.00 -1.56 1.04
680.00 288.00 0.00 -1.56 1.04
681.00 288.00 0.00 -1.57 1.04
682.00 288.00 0.00 -1.58 1.04
683.00 288.00 0.00 -1.59 1.05
684.00 288.00 0.00 -1.59 1.05
685.00 288.00 0.00 -1.60 1.05
686.00 288.00 0.00 -1.60 1.05
687.00 288.00 0.00 -1.61 1.05
688.00 288.00 0.00 -1.62 1.05
689.00 288.00 0.00 -1.62 1.05
690.00 288.00 0.00 -1.63 1.05
691.00 288.00 0.00 -1.63 1.05
692.00 288.00 0.00 -1.64 1.05
693.00 288.00 0.00 -1.64 1.05
694.00 288.00 0.00 -1.65 1.05
695.00 288.00 0.00 -1.65 1.05
696.00 288.00 0.00 -1.65 1.05
697.00 288.00 0.00 -1.66 1.05
698.00 288.00 0.00 -1.66 1.05
699.00 288.00 0.00 -1.67 1.05
700.00 288.00 0.00 -1.67 1.06
701.00 288.00 0.00 -1.67 1.06
702.00 288.00 0.00 -1.68 1.06
703.00 288.00 0.00 -1.68 1.06
704.00 288.00 0.00 -1.68 1.06
705.00 288.00 0.00 -1.68 1.06
706.00 288.00 0.00 -1.69 1.06
707.00 288.00 0.00 -1.69 1.06
708.00 288.00 0.00 -1.69 1.06
709.00 288.00 0.00 -1.69 1.06
710.00 288.00 0.00 -1.69 1.06
711.00 288.00 0.00 -1.69 1.06
712.00 288.00 0.00 -1.70 1.06
713.00 288.00 0.00 -1.70 1.06
714.00 288.00 0.00 -1.70 1.06
715.00 288.00 0.00 -1.70 1.06
716.00 288.00 0.00 -1.70 1.06
717.00 288.00 0.00 -1.70 1.06
718.00 288.00 0.00 -1.70 1.06
719.00 288.00 0.00 -1.70 1.06
720.00 288.00 0.00 -1.70 1.06
721.00 288.00 0.00 -1.70 1.06
722.00 288.00 0.00 -1.70 1.06
723.00 288.00 0.00 -1.70 1.06
724.00 288.00 0.00 -1.70 1.06
725.00 288.00 0.00 -1.70 1.06
726.00 288.00 0.00 -1.70 1.06
727.00 288.00 0.00 -1.70 1.06
728.00 288.00 0.00 -1.70 1.06
729.00 288.00 0.00 -1.70 1.06
730.00 288.00 0.00 -1.70 1.06
731.00 288.00 0.00 -1.70 1.06
732.00 288.00 0.00 -1.70 1.06
733.00 288.00 0.00 -1.70 1.06
734.00 288.00 0.00 -1.70 1.06
735.00 288.00 0.00 -1.70 1.06
736.00 288.00 0.00 -1.70 1.06
737.00 288.00 0.00 -1.70 1.06
738.00 288.00 0.00 -1.70 1.06
739.00 288.00 0.00 -1.70 1.06
740.00 288.00 0.00 -1.70 1.06
741.00 288.00 0.00 -1.70 1.06
742.00 288.00 0.00 -1.70 1.06
743.00 288.00 0.00 -1.70 1.06
744.00 288.00 0.00 -1.70 1.06
745.00 288.00 0.00 -1.70 1.06
746.00 288.00 0.00 -1.70 1.06
747.00 288.00 0.00 -1.70 1.06
748.00 288.00 0.00 -1.70 1.06
749.00 288.00 0.00 -1.70 1.06
750.00 288.00 0.00 -1.70 1.06
751.00 288.00 0.00 -1.70 1.06
752.00 288.00 0.00 -1.70 1.06
753.00 288.00 0.00 -1.70 1.06
754.00 288.00 0.00 -1.70 1.06
755.00 288.00 0.00 -1.70 1.06
756.00 288.00 0.00 -1.70 1.06
757.00 288.00 0.00 -1.70 1.06
758.00 288.00 0.00 -1.70 1.06
759.00 288.00 0.00 -1.70 1.06
760.00 288.00 0.00 -1.70 1.06
761.00 288.00 0.00 -1.70 1.06
762.00 288.00 0.00 -1.70 1.06
763.00 288.00 0.00 -1.70 1.06
764.00 288.00 0.00 -1.70 1.06
765.00 288.00 0.00 -1.70 1.06
766.00 288.00 0.00 -1.70 1.06
767.00 288.00 0.00 -1.70 1.06
768.00 288.00 0.00 -1.70 1.06
769.00 288.00 0.00 -1.70 1.06
770.00 288.00 0.00 -1.70 1.06
771.00 288.00 0.00 -1.70 1.06
772.00 288.00 0.00 -1.70 1.06
773.00 288.00 0.00 -1.70 1.06
774.00 288.00 0.00 -1.70 1.06
775.00 288.00 0.00 -1.70 1.06
776.00 288.00 0.00 -1.70 1.06
777.00 288.00 0.00 -1.70 1.06
778.00 288.00 0.00 -1.70 1.06
779.00 288.00 0.00 -1.70 1.06
780.00 288.00 0.00 -1.70 1.06
781.00 288.00 0.00 -1.70 1.06
782.00 288.00 0.00 -1.70 1.06
783.00 288.00 0.00 -1.70 1.06
784.00 288.00 0.00 -1.70 1.06
785.00 288.00 0.00 -1.70 1.06
786.00 288.00 0.00 -1.70 1.06
787.00 288.00 0.00 -1.70 1.06
788.00 288.00 0.00 -1.70 1.06
789.00 288.00 0.00 -1.70 1.06
790.00 288.00 0.00 -1.70 1.06
791.00 288.00 0.00 -1.70 1.06
792.00 288.00 0.00 -1.70 1.06
793.00 288.00 0.00 -1.70 1.06
794.00 288.00 0.00 -1.70 1.06
795.00 288.00 0.00 -1.70 1.06
796.00 288.00 0.00 -1.70 1.06
797.00 288.00 0.00 -1.70 1.06
798.00 288.00 0.00 -1.70 1.06
799.00 288.00 0.00 -1.70 1.06
800.00 288.00 0.00 -1.70 1.06
801.00 288.00 0.00 -1.70 1.06
802.00 288.00 0.00 -1.70 1.06
803.00 288.00 0.00 -1.70 1.06
804.00 288.00 0.00 -1.70 1.06
805.00 288.00 0.00 -1.70 1.06
806.00 288.00 0.00 -1.70 1.06
807.00 288.00 0.00 -1.70 1.06
808.00 288.00 0.00 -1.70 1.06
809.00 288.00 0.00 -1.70 1.06
810.00 288.00 0.00 -1.70 1.06
811.00 288.00 0.00 -1.70 1.06
812.00 288.00 0.00 -1.70 1.06
813.00 288.00 0.00 -1.70 1.06
814.00 288.00 0.00 -1.70 1.06
815.00 288.00 0.00 -1.70 1.06
816.00 288.00 0.00 -1.70 1.06
817.00 288.00 0.00 -1.70 1.06
818.00 288.00 0.00 -1.70 1.06
819.00 288.00 0.00 -1.70 1.06
820.00 288.00 0.00 -1.70 1.06
821.00 288.00 0.00 -1.70 1.06
822.00 288.00 0.00 -1.70 1.06
823.00 288.00 0.00 -1.70 1.06
824.00 288.00 0.00 -1.70 1.06
825.00 288.00 0.00 -1.70 1.06
826.00 288.00 0.00 -1.70 1.06
827.00 288.00 0.00 -1.70 1.06
828.00 288.00 0.00 -1.70 1.06
829.00 288.00 0.00 -1.70 1.06
830.00 288.00 0.00 -1.70 1.06
831.00 288.00 0.00 -1.70 1.06
