1000.00 288.00 00.00
0.00 288.00 0.00 5.94 3.68
1.00 288.00 0.00 5.94 3.68
2.00 288.00 0.00 5.94 3.68
3.00 288.00 0.00 5.94 3.68
4.00 288.00 0.00 5.94 3.68
5.00 288.00 0.00 5.94 3.68
6.00 288.00 0.00 5.94 3.68
7.00 288.00 0.00 5.94 3.68
8.00 288.00 0.00 5.94 3.68
9.00 288.00 0.00 5.94 3.68
10.00 288.00 0.00 5.94 3.68
11.00 288.00 0.00 5.94 3.68
12.00 288.00 0.00 5.94 3.68
13.00 288.00 0.00 5.94 3.68
14.00 288.00 0.00 5.94 3.68
15.00 288.00 0.00 5.94 3.68
16.00 288.00 0.00 5.94 3.68
17.00 288.00 0.00 5.94 3.68
18.00 288.00 0.00 5.94 3.68
19.00 288.00 0.00 5.94 3.68
20.00 288.00 0.00 5.94 3.68
21.00 288.00 0.00 5.94 3.68
22.00 288.00 0.00 5.94 3.68
23.00 288.00 0.00 5.94 3.68
24.00 288.00 0.00 5.94 3.68
25.00 288.00 0.00 5.94 3.68
26.00 288.00 0.00 5.94 3.68
27.00 288.00 0.00 5.94 3.68
28.00 288.00 0.00 5.94 3.68
29.00 288.00 0.00 5.94 3.68
30.00 288.00 0.00 5.94 3.68
31.00 288.00 0.00 5.94 3.68
32.00 288.00 0.00 5.94 3.68
33.00 288.00 0.00 5.94 3.68
34.00 288.00 0.00 5.94 3.68
35.00 288.00 0.00 5.94 3.68
36.00 288.00 0.00 5.94 3.68
37.00 288.00 0.00 5.94 3.68
38.00 288.00 0.00 5.94 3.68
39.00 288.00 0.00 5.94 3.68
40.00 288.00 0.00 5.94 3.68
41.00 288.00 0.00 5.94 3.68
42.00 288.00 0.00 5.94 3.68
43.00 288.00 0.00 5.94 3.68
44.00 288.00 0.00 5.94 3.68
45.00 288.00 0.00 5.94 3.68
46.00 288.00 0.00 5.94 3.68
47.00 288.00 0.00 5.94 3.68
48.00 288.00 0.00 5.94 3.68
49.00 288.00 0.00 5.94 3.68
50.00 288.00 0.00 5.94 3.68
51.00 288.00 0.00 5.94 3.68
52.00 288.00 0.00 5.94 3.68
53.00 288.00 0.00 5.94 3.68
54.00 288.00 0.00 5.94 3.68
55.00 288.00 0.00 5.94 3.68
56.00 288.00 0.00 5.94 3.68
57.00 288.00 0.00 5.94 3.68
58.00 288.00 0.00 5.94 3.68
59.00 288.00 0.00 5.94 3.68
60.00 288.00 0.00 5.94 3.68
61.00 288.00 0.00 5.94 3.68
62.00 288.00 0.00 5.94 3.68
63.00 288.00 0.00 5.94 3.68
64.00 288.00 0.00 5.94 3.68
65.00 288.00 0.00 5.94 3.68
66.00 288.00 0.00 5.94 3.68
67.00 288.00 0.00 5.94 3.68
68.00 288.00 0.00 5.94 3.68
69.00 288.00 0.00 5.94 3.68
70.00 288.00 0.00 5.94 3.68
71.00 288.00 0.00 5.94 3.68
72.00 288.00 0.00 5.94 3.68
73.00 288.00 0.00 5.94 3.68
74.00 288.00 0.00 5.94 3.68
75.00 288.00 0.00 5.94 3.68
76.00 288.00 0.00 5.94 3.68
77.00 288.00 0.00 5.94 3.68
78.00 288.00 0.00 5.94 3.68
79.00 288.00 0.00 5.94 3.68
80.00 288.00 0.00 5.94 3.68
81.00 288.00 0.00 5.94 3.68
82.00 288.00 0.00 5.94 3.68
83.00 288.00 0.00 5.94 3.68
84.00 288.00 0.00 5.94 3.68
85.00 288.00 0.00 5.94 3.68
86.00 288.00 0.00 5.94 3.68
87.00 288.00 0.00 5.94 3.68
88.00 288.00 0.00 5.94 3.68
89.00 288.00 0.00 5.94 3.68
90.00 288.00 0.00 5.94 3.68
91.00 288.00 0.00 5.94 3.68
92.00 288.00 0.00 5.94 3.67
93.00 288.00 0.00 5.94 3.67
94.00 288.00 0.00 5.95 3.67
95.00 288.00 0.00 5.95 3.67
96.00 288.00 0.00 5.95 3.67
97.00 288.00 0.00 5.95 3.67
98.00 288.00 0.00 5.95 3.66
99.00 288.00 0.00 5.95 3.66
100.00 288.00 0.00 5.95 3.66
101.00 288.00 0.00 5.95 3.66
102.00 288.00 0.00 5.95 3.66
103.00 288.00 0.00 5.95 3.65
104.00 288.00 0.00 5.95 3.65
105.00 288.00 0.00 5.95 3.65
106.00 288.00 0.00 5.95 3.65
107.00 288.00 0.00 5.95 3.64
108.00 288.00 0.00 5.95 3.64
109.00 288.00 0.00 5.96 3.64
110.00 288.00 0.00 5.96 3.64
111.00 288.00 0.00 5.96 3.63
112.00 288.00 0.00 5.96 3.63
113.00 288.00 0.00 5.96 3.63
114.00 288.00 0.00 5.96 3.62
115.00 288.00 0.00 5.96 3.62
116.00 288.00 0.00 5.96 3.62
117.00 288.00 0.00 5.96 3.61
118.00 288.00 0.00 5.96 3.61
119.00 288.00 0.00 5.97 3.61
120.00 288.00 0.00 5.97 3.60
121.00 288.00 0.00 5.97 3.60
122.00 288.00 0.00 5.97 3.59
123.00 288.00 0.00 5.97 3.59
124.00 288.00 0.00 5.97 3.59
125.00 288.00 0.00 5.97 3.58
126.00 288.00 0.00 5.97 3.58
127.00 288.00 0.00 5.98 3.57
128.00 288.00 0.00 5.98 3.57
129.00 288.00 0.00 5.98 3.56
130.00 288.00 0.00 5.98 3.56
131.00 288.00 0.00 5.98 3.55
132.00 288.00 0.00 5.98 3.55
133.00 288.00 0.00 5.99 3.54
134.00 288.00 0.00 5.99 3.54
135.00 288.00 0.00 5.99 3.53
136.00 288.00 0.00 5.99 3.53
137.00 288.00 0.00 5.99 3.52
138.00 288.00 0.00 5.99 3.52
139.00 288.00 0.00 5.99 3.51
140.00 288.00 0.00 6.00 3.51
141.00 288.00 0.00 6.00 3.50
142.00 288.00 0.00 6.00 3.50
143.00 288.00 0.00 6.00 3.49
144.00 288.00 0.00 6.00 3.48
145.00 288.00 0.00 6.01 3.48
146.00 288.00 0.00 6.01 3.47
147.00 288.00 0.00 6.01 3.47
148.00 288.00 0.00 6.01 3.46
149.00 288.00 0.00 6.01 3.45
150.00 288.00 0.00 6.02 3.45
151.00 288.00 0.00 6.02 3.44
152.00 288.00 0.00 6.02 3.43
153.00 288.00 0.00 6.02 3.43
154.00 288.00 0.00 6.02 3.42
155.00 288.00 0.00 6.03 3.41
156.00 288.00 0.00 6.03 3.41
157.00 288.00 0.00 6.03 3.40
158.00 288.00 0.00 6.03 3.39
159.00 288.00 0.00 6.04 3.38
160.00 288.00 0.00 6.04 3.38
161.00 288.00 0.00 6.04 3.37
162.00 288.00 0.00 6.04 3.36
163.00 288.00 0.00 6.04 3.35
164.00 288.00 0.00 6.05 3.35
165.00 288.00 0.00 6.05 3.34
166.00 288.00 0.00 6.05 3.33
167.00 288.00 0.00 6.05 3.32
168.00 288.00 0.00 6.06 3.31
169.00 288.00 0.00 6.06 3.31
170.00 288.00 0.00 6.06 3.30
171.00 288.00 0.00 6.06 3.29
172.00 288.00 0.00 6.07 3.28
173.00 288.00 0.00 6.07 3.27
174.00 288.00 0.00 6.07 3.26
175.00 288.00 0.00 6.08 3.25
176.00 288.00 0.00 6.08 3.25
177.00 288.00 0.00 6.08 3.24
178.00 288.00 0.00 6.08 3.23
179.00 288.00 0.00 6.09 3.22
180.00 288.00 0.00 6.09 3.21
181.00 288.00 0.00 6.09 3.20
182.00 288.00 0.00 6.10 3.19
183.00 288.00 0.00 6.10 3.18
184.00 288.00 0.00 6.10 3.17
185.00 288.00 0.00 6.10 3.16
186.00 288.00 0.00 6.11 3.15
187.00 288.00 0.00 6.11 3.14
188.00 288.00 0.00 6.11 3.13
189.00 288.00 0.00 6.12 3.12
190.00 288.00 0.00 6.12 3.11
191.00 288.00 0.00 6.12 3.10
192.00 288.00 0.00 6.13 3.09
193.00 288.00 0.00 6.13 3.08
194.00 288.00 0.00 6.13 3.07
195.00 288.00 0.00 6.14 3.06
196.00 288.00 0.00 6.14 3.05
197.00 288.00 0.00 6.14 3.03
198.00 288.00 0.00 6.15 3.02
199.00 288.00 0.00 6.15 3.01
200.00 288.00 0.00 6.15 3.00
201.00 288.00 0.00 6.16 2.99
202.00 288.00 0.00 6.16 2.98
203.00 288.00 0.00 6.16 2.97
204.00 288.00 0.00 6.17 2.95
205.00 288.00 0.00 6.17 2.94
206.00 288.00 0.00 6.17 2.93
207.00 288.00 0.00 6.18 2.92
208.00 288.00 0.00 6.18 2.91
209.00 288.00 0.00 6.18 2.89
210.00 288.00 0.00 6.19 2.88
211.00 288.00 0.00 6.19 2.87
212.00 288.00 0.00 6.20 2.86
213.00 288.00 0.00 6.20 2.84
214.00 288.00 0.00 6.20 2.83
215.00 288.00 0.00 6.21 2.82
216.00 288.00 0.00 6.21 2.81
217.00 288.00 0.00 6.21 2.79
218.00 288.00 0.00 6.22 2.78
219.00 288.00 0.00 6.22 2.77
220.00 288.00 0.00 6.23 2.75
221.00 288.00 0.00 6.23 2.74
222.00 288.00 0.00 6.23 2.73
223.00 288.00 0.00 6.24 2.71
224.00 288.00 0.00 6.24 2.70
225.00 288.00 0.00 6.25 2.68
226.00 288.00 0.00 6.25 2.67
227.00 288.00 0.00 6.25 2.66
228.00 288.00 0.00 6.26 2.64
229.00 288.00 0.00 6.26 2.63
230.00 288.00 0.00 6.27 2.61
231.00 288.00 0.00 6.27 2.60
232.00 288.00 0.00 6.28 2.58
233.00 288.00 0.00 6.28 2.57
234.00 288.00 0.00 6.28 2.55
235.00 288.00 0.00 6.29 2.54
236.00 288.00 0.00 6.29 2.52
237.00 288.00 0.00 6.30 2.51
238.00 288.00 0.00 6.30 2.49
239.00 288.00 0.00 6.31 2.48
240.00 288.00 0.00 6.31 2.46
241.00 288.00 0.00 6.32 2.45
242.00 288.00 0.00 6.32 2.43
243.00 288.00 0.00 6.33 2.41
244.00 288.00 0.00 6.33 2.40
245.00 288.00 0.00 6.33 2.38
246.00 288.00 0.00 6.34 2.37
247.00 288.00 0.00 6.34 2.35
248.00 288.00 0.00 6.35 2.33
249.00 288.00 0.00 6.35 2.32
250.00 288.00 0.00 6.36 2.30
251.00 288.00 0.00 6.36 2.28
252.00 288.00 0.00 6.37 2.27
253.00 288.00 0.00 6.37 2.25
254.00 288.00 0.00 6.38 2.23
255.00 288.00 0.00 6.38 2.22
256.00 288.00 0.00 6.39 2.20
257.00 288.00 0.00 6.39 2.18
258.00 288.00 0.00 6.40 2.16
259.00 288.00 0.00 6.40 2.15
260.00 288.00 0.00 6.41 2.13
261.00 288.00 0.00 6.41 2.11
262.00 288.00 0.00 6.42 2.09
263.00 288.00 0.00 6.42 2.08
264.00 288.00 0.00 6.43 2.06
265.00 288.00 0.00 6.43 2.04
266.00 288.00 0.00 6.44 2.02
267.00 288.00 0.00 6.44 2.01
268.00 288.00 0.00 6.45 1.99
269.00 288.00 0.00 6.45 1.97
270.00 288.00 0.00 6.46 1.95
271.00 288.00 0.00 6.46 1.94
272.00 288.00 0.00 6.47 1.92
273.00 288.00 0.00 6.47 1.90
274.00 288.00 0.00 6.48 1.88
275.00 288.00 0.00 6.48 1.86
276.00 288.00 0.00 6.49 1.85
277.00 288.00 0.00 6.49 1.83
278.00 288.00 0.00 6.50 1.81
279.00 288.00 0.00 6.50 1.79
280.00 288.00 0.00 6.51 1.78
281.00 288.00 0.00 6.51 1.76
282.00 288.00 0.00 6.52 1.74
283.00 288.00 0.00 6.52 1.72
284.00 288.00 0.00 6.53 1.71
285.00 288.00 0.00 6.53 1.69
286.00 288.00 0.00 6.54 1.67
287.00 288.00 0.00 6.54 1.65
288.00 288.00 0.00 6.55 1.63
289.00 288.00 0.00 6.55 1.62
290.00 288.00 0.00 6.56 1.60
291.00 288.00 0.00 6.56 1.58
292.00 288.00 0.00 6.57 1.56
293.00 288.00 0.00 6.57 1.54
294.00 288.00 0.00 6.58 1.53
295.00 288.00 0.00 6.58 1.51
296.00 288.00 0.00 6.59 1.49
297.00 288.00 0.00 6.59 1.47
298.00 288.00 0.00 6.60 1.46
299.00 288.00 0.00 6.60 1.44
300.00 288.00 0.00 6.61 1.42
301.00 288.00 0.00 6.61 1.40
302.00 288.00 0.00 6.62 1.38
303.00 288.00 0.00 6.62 1.37
304.00 288.00 0.00 6.63 1.35
305.00 288.00 0.00 6.63 1.33
306.00 288.00 0.00 6.64 1.31
307.00 288.00 0.00 6.64 1.29
308.00 288.00 0.00 6.65 1.28
309.00 288.00 0.00 6.65 1.26
310.00 288.00 0.00 6.66 1.24
311.00 288.00 0.00 6.66 1.22
312.00 288.00 0.00 6.67 1.20
313.00 288.00 0.00 6.67 1.19
314.00 288.00 0.00 6.68 1.17
315.00 288.00 0.00 6.68 1.15
316.00 288.00 0.00 6.69 1.13
317.00 288.00 0.00 6.69 1.11
318.00 288.00 0.00 6.70 1.10
319.00 288.00 0.00 6.70 1.08
320.00 288.00 0.00 6.71 1.06
321.00 288.00 0.00 6.71 1.04
322.00 288.00 0.00 6.72 1.02
323.00 288.00 0.00 6.72 1.00
324.00 288.00 0.00 6.73 0.99
325.00 288.00 0.00 6.73 0.97
326.00 288.00 0.00 6.74 0.95
327.00 288.00 0.00 6.74 0.93
328.00 288.00 0.00 6.75 0.91
329.00 288.00 0.00 6.75 0.90
330.00 288.00 0.00 6.76 0.88
331.00 288.00 0.00 6.76 0.86
332.00 288.00 0.00 6.77 0.84
333.00 288.00 0.00 6.77 0.82
334.00 288.00 0.00 6.78 0.80
335.00 288.00 0.00 6.78 0.79
336.00 288.00 0.00 6.79 0.77
337.00 288.00 0.00 6.79 0.75
338.00 288.00 0.00 6.80 0.73
339.00 288.00 0.00 6.80 0.71
340.00 288.00 0.00 6.81 0.70
341.00 288.00 0.00 6.81 0.68
342.00 288.00 0.00 6.82 0.66
343.00 288.00 0.00 6.82 0.64
344.00 288.00 0.00 6.83 0.62
345.00 288.00 0.00 6.83 0.60
346.00 288.00 0.00 6.84 0.59
347.00 288.00 0.00 6.84 0.57
348.00 288.00 0.00 6.85 0.55
349.00 288.00 0.00 6.85 0.53
350.00 288.00 0.00 6.86 0.51
351.00 288.00 0.00 6.86 0.49
352.00 288.00 0.00 6.87 0.48
353.00 288.00 0.00 6.87 0.46
354.00 288.00 0.00 6.88 0.44
355.00 288.00 0.00 6.88 0.42
356.00 288.00 0.00 6.89 0.40
357.00 288.00 0.00 6.89 0.38
358.00 288.00 0.00 6.90 0.37
359.00 288.00 0.00 6.90 0.35
360.00 288.00 0.00 6.91 0.33
361.00 288.00 0.00 6.91 0.31
362.00 288.00 0.00 6.92 0.29
363.00 288.00 0.00 6.92 0.27
364.00 288.00 0.00 6.93 0.26
365.00 288.00 0.00 6.93 0.24
366.00 288.00 0.00 6.94 0.22
367.00 288.00 0.00 6.94 0.20
368.00 288.00 0.00 6.95 0.18
369.00 288.00 0.00 6.95 0.16
370.00 288.00 0.00 6.96 0.15
371.00 288.00 0.00 6.96 0.13
372.00 288.00 0.00 6.97 0.11
373.00 288.00 0.00 6.97 0.09
374.00 288.00 0.00 6.98 0.07
375.00 288.00 0.00 6.98 0.05
376.00 288.00 0.00 6.99 0.04
377.00 288.00 0.00 6.99 0.02
378.00 288.00 0.00 7.00 -0.00
379.00 288.00 0.00 7.00 -0.02
380.00 288.00 0.00 7.01 -0.04
381.00 288.00 0.00 7.01 -0.05
382.00 288.00 0.00 7.02 -0.07
383.00 288.00 0.00 7.02 -0.09
384.00 288.00 0.00 7.03 -0.11
385.00 288.00 0.00 7.03 -0.13
386.00 288.00 0.00 7.04 -0.15
387.00 288.00 0.00 7.04 -0.16
388.00 288.00 0.00 7.05 -0.18
389.00 288.00 0.00 7.05 -0.20
390.00 288.00 0.00 7.06 -0.22
391.00 288.00 0.00 7.06 -0.24
392.00 288.00 0.00 7.07 -0.26
393.00 288.00 0.00 7.07 -0.27
394.00 288.00 0.00 7.08 -0.29
395.00 288.00 0.00 7.08 -0.31
396.00 288.00 0.00 7.09 -0.33
397.00 288.00 0.00 7.09 -0.35
398.00 288.00 0.00 7.10 -0.37
399.00 288.00 0.00 7.10 -0.38
400.00 288.00 0.00 7.11 -0.40
401.00 288.00 0.00 7.11 -0.42
402.00 288.00 0.00 7.12 -0.44
403.00 288.00 0.00 7.12 -0.46
404.00 288.00 0.00 7.13 -0.48
405.00 288.00 0.00 7.13 -0.49
406.00 288.00 0.00 7.14 -0.51
407.00 288.00 0.00 7.14 -0.53
408.00 288.00 0.00 7.15 -0.55
409.00 288.00 0.00 7.15 -0.57
410.00 288.00 0.00 7.16 -0.59
411.00 288.00 0.00 7.16 -0.60
412.00 288.00 0.00 7.17 -0.62
413.00 288.00 0.00 7.17 -0.64
414.00 288.00 0.00 7.18 -0.66
415.00 288.00 0.00 7.18 -0.68
416.00 288.00 0.00 7.19 -0.70
417.00 288.00 0.00 7.19 -0.71
418.00 288.00 0.00 7.20 -0.73
419.00 288.00 0.00 7.20 -0.75
420.00 288.00 0.00 7.21 -0.77
421.00 288.00 0.00 7.21 -0.79
422.00 288.00 0.00 7.22 -0.80
423.00 288.00 0.00 7.22 -0.82
424.00 288.00 0.00 7.23 -0.84
425.00 288.00 0.00 7.23 -0.86
426.00 288.00 0.00 7.24 -0.88
427.00 288.00 0.00 7.24 -0.90
428.00 288.00 0.00 7.25 -0.91
429.00 288.00 0.00 7.25 -0.93
430.00 288.00 0.00 7.26 -0.95
431.00 288.00 0.00 7.26 -0.97
432.00 288.00 0.00 7.27 -0.99
433.00 288.00 0.00 7.27 -1.00
434.00 288.00 0.00 7.28 -1.02
435.00 288.00 0.00 7.28 -1.04
436.00 288.00 0.00 7.29 -1.06
437.00 288.00 0.00 7.29 -1.08
438.00 288.00 0.00 7.30 -1.10
439.00 288.00 0.00 7.30 -1.11
440.00 288.00 0.00 7.31 -1.13
441.00 288.00 0.00 7.31 -1.15
442.00 288.00 0.00 7.32 -1.17
443.00 288.00 0.00 7.32 -1.19
444.00 288.00 0.00 7.33 -1.20
445.00 288.00 0.00 7.33 -1.22
446.00 288.00 0.00 7.34 -1.24
447.00 288.00 0.00 7.34 -1.26
448.00 288.00 0.00 7.35 -1.28
449.00 288.00 0.00 7.35 -1.29
450.00 288.00 0.00 7.36 -1.31
451.00 288.00 0.00 7.36 -1.33
452.00 288.00 0.00 7.37 -1.35
453.00 288.00 0.00 7.37 -1.37
454.00 288.00 0.00 7.38 -1.38
455.00 288.00 0.00 7.38 -1.40
456.00 288.00 0.00 7.39 -1.42
457.00 288.00 0.00 7.39 -1.44
458.00 288.00 0.00 7.40 -1.46
459.00 288.00 0.00 7.40 -1.47
460.00 288.00 0.00 7.41 -1.49
461.00 288.00 0.00 7.41 -1.51
462.00 288.00 0.00 7.42 -1.53
463.00 288.00 0.00 7.42 -1.54
464.00 288.00 0.00 7.43 -1.56
465.00 288.00 0.00 7.43 -1.58
466.00 288.00 0.00 7.44 -1.60
467.00 288.00 0.00 7.44 -1.62
468.00 288.00 0.00 7.45 -1.63
469.00 288.00 0.00 7.45 -1.65
470.00 288.00 0.00 7.46 -1.67
471.00 288.00 0.00 7.46 -1.69
472.00 288.00 0.00 7.47 -1.71
473.00 288.00 0.00 7.47 -1.72
474.00 288.00 0.00 7.48 -1.74
475.00 288.00 0.00 7.48 -1.76
476.00 288.00 0.00 7.49 -1.78
477.00 288.00 0.00 7.49 -1.79
478.00 288.00 0.00 7.50 -1.81
479.00 288.00 0.00 7.50 -1.83
480.00 288.00 0.00 7.51 -1.85
481.00 288.00 0.00 7.51 -1.86
482.00 288.00 0.00 7.52 -1.88
483.00 288.00 0.00 7.52 -1.90
484.00 288.00 0.00 7.53 -1.92
485.00 288.00 0.00 7.53 -1.94
486.00 288.00 0.00 7.54 -1.95
487.00 288.00 0.00 7.54 -1.97
488.00 288.00 0.00 7.55 -1.99
489.00 288.00 0.00 7.55 -2.01
490.00 288.00 0.00 7.56 -2.02
491.00 288.00 0.00 7.56 -2.04
492.00 288.00 0.00 7.57 -2.06
493.00 288.00 0.00 7.57 -2.08
494.00 288.00 0.00 7.58 -2.09
495.00 288.00 0.00 7.58 -2.11
496.00 288.00 0.00 7.59 -2.13
497.00 288.00 0.00 7.59 -2.15
498.00 288.00 0.00 7.60 -2.16
499.00 288.00 0.00 7.60 -2.18
500.00 288.00 0.00 7.61 -2.20
501.00 288.00 0.00 7.61 -2.22
502.00 288.00 0.00 7.62 -2.23
503.00 288.00 0.00 7.62 -2.25
504.00 288.00 0.00 7.63 -2.27
505.00 288.00 0.00 7.63 -2.28
506.00 288.00 0.00 7.64 -2.30
507.00 288.00 0.00 7.64 -2.32
508.00 288.00 0.00 7.65 -2.33
509.00 288.00 0.00 7.65 -2.35
510.00 288.00 0.00 7.66 -2.37
511.00 288.00 0.00 7.66 -2.38
512.00 288.00 0.00 7.67 -2.40
513.00 288.00 0.00 7.67 -2.41
514.00 288.00 0.00 7.67 -2.43
515.00 288.00 0.00 7.68 -2.45
516.00 288.00 0.00 7.68 -2.46
517.00 288.00 0.00 7.69 -2.48
518.00 288.00 0.00 7.69 -2.49
519.00 288.00 0.00 7.70 -2.51
520.00 288.00 0.00 7.70 -2.52
521.00 288.00 0.00 7.71 -2.54
522.00 288.00 0.00 7.71 -2.55
523.00 288.00 0.00 7.72 -2.57
524.00 288.00 0.00 7.72 -2.58
525.00 288.00 0.00 7.72 -2.60
526.00 288.00 0.00 7.73 -2.61
527.00 288.00 0.00 7.73 -2.63
528.00 288.00 0.00 7.74 -2.64
529.00 288.00 0.00 7.74 -2.66
530.00 288.00 0.00 7.75 -2.67
531.00 288.00 0.00 7.75 -2.68
532.00 288.00 0.00 7.75 -2.70
533.00 288.00 0.00 7.76 -2.71
534.00 288.00 0.00 7.76 -2.73
535.00 288.00 0.00 7.77 -2.74
536.00 288.00 0.00 7.77 -2.75
537.00 288.00 0.00 7.77 -2.77
538.00 288.00 0.00 7.78 -2.78
539.00 288.00 0.00 7.78 -2.79
540.00 288.00 0.00 7.79 -2.81
541.00 288.00 0.00 7.79 -2.82
542.00 288.00 0.00 7.79 -2.83
543.00 288.00 0.00 7.80 -2.84
544.00 288.00 0.00 7.80 -2.86
545.00 288.00 0.00 7.80 -2.87
546.00 288.00 0.00 7.81 -2.88
547.00 288.00 0.00 7.81 -2.89
548.00 288.00 0.00 7.82 -2.91
549.00 288.00 0.00 7.82 -2.92
550.00 288.00 0.00 7.82 -2.93
551.00 288.00 0.00 7.83 -2.94
552.00 288.00 0.00 7.83 -2.95
553.00 288.00 0.00 7.83 -2.97
554.00 288.00 0.00 7.84 -2.98
555.00 288.00 0.00 7.84 -2.99
556.00 288.00 0.00 7.84 -3.00
557.00 288.00 0.00 7.85 -3.01
558.00 288.00 0.00 7.85 -3.02
559.00 288.00 0.00 7.85 -3.03
560.00 288.00 0.00 7.86 -3.05
561.00 288.00 0.00 7.86 -3.06
562.00 288.00 0.00 7.86 -3.07
563.00 288.00 0.00 7.87 -3.08
564.00 288.00 0.00 7.87 -3.09
565.00 288.00 0.00 7.87 -3.10
566.00 288.00 0.00 7.88 -3.11
567.00 288.00 0.00 7.88 -3.12
568.00 288.00 0.00 7.88 -3.13
569.00 288.00 0.00 7.89 -3.14
570.00 288.00 0.00 7.89 -3.15
571.00 288.00 0.00 7.89 -3.16
572.00 288.00 0.00 7.90 -3.17
573.00 288.00 0.00 7.90 -3.18
574.00 288.00 0.00 7.90 -3.19
575.00 288.00 0.00 7.90 -3.20
576.00 288.00 0.00 7.91 -3.21
577.00 288.00 0.00 7.91 -3.22
578.00 288.00 0.00 7.91 -3.23
579.00 288.00 0.00 7.92 -3.24
580.00 288.00 0.00 7.92 -3.25
581.00 288.00 0.00 7.92 -3.25
582.00 288.00 0.00 7.92 -3.26
583.00 288.00 0.00 7.93 -3.27
584.00 288.00 0.00 7.93 -3.28
585.00 288.00 0.00 7.93 -3.29
586.00 288.00 0.00 7.94 -3.30
587.00 288.00 0.00 7.94 -3.31
588.00 288.00 0.00 7.94 -3.31
589.00 288.00 0.00 7.94 -3.32
590.00 288.00 0.00 7.95 -3.33
591.00 288.00 0.00 7.95 -3.34
592.00 288.00 0.00 7.95 -3.35
593.00 288.00 0.00 7.95 -3.35
594.00 288.00 0.00 7.96 -3.36
595.00 288.00 0.00 7.96 -3.37
596.00 288.00 0.00 7.96 -3.38
597.00 288.00 0.00 7.96 -3.38
598.00 288.00 0.00 7.96 -3.39
599.00 288.00 0.00 7.97 -3.40
600.00 288.00 0.00 7.97 -3.41
601.00 288.00 0.00 7.97 -3.41
602.00 288.00 0.00 7.97 -3.42
603.00 288.00 0.00 7.98 -3.43
604.00 288.00 0.00 7.98 -3.43
605.00 288.00 0.00 7.98 -3.44
606.00 288.00 0.00 7.98 -3.45
607.00 288.00 0.00 7.98 -3.45
608.00 288.00 0.00 7.99 -3.46
609.00 288.00 0.00 7.99 -3.47
610.00 288.00 0.00 7.99 -3.47
611.00 288.00 0.00 7.99 -3.48
612.00 288.00 0.00 7.99 -3.48
613.00 288.00 0.00 8.00 -3.49
614.00 288.00 0.00 8.00 -3.50
615.00 288.00 0.00 8.00 -3.50
616.00 288.00 0.00 8.00 -3.51
617.00 288.00 0.00 8.00 -3.51
618.00 288.00 0.00 8.01 -3.52
619.00 288.00 0.00 8.01 -3.52
620.00 288.00 0.00 8.01 -3.53
621.00 288.00 0.00 8.01 -3.53
622.00 288.00 0.00 8.01 -3.54
623.00 288.00 0.00 8.01 -3.54
624.00 288.00 0.00 8.01 -3.55
625.00 288.00 0.00 8.02 -3.55
626.00 288.00 0.00 8.02 -3.56
627.00 288.00 0.00 8.02 -3.56
628.00 288.00 0.00 8.02 -3.57
629.00 288.00 0.00 8.02 -3.57
630.00 288.00 0.00 8.02 -3.58
631.00 288.00 0.00 8.03 -3.58
632.00 288.00 0.00 8.03 -3.59
633.00 288.00 0.00 8.03 -3.59
634.00 288.00 0.00 8.03 -3.59
635.00 288.00 0.00 8.03 -3.60
636.00 288.00 0.00 8.03 -3.60
637.00 288.00 0.00 8.03 -3.61
638.00 288.00 0.00 8.03 -3.61
639.00 288.00 0.00 8.04 -3.61
640.00 288.00 0.00 8.04 -3.62
641.00 288.00 0.00 8.04 -3.62
642.00 288.00 0.00 8.04 -3.62
643.00 288.00 0.00 8.04 -3.63
644.00 288.00 0.00 8.04 -3.63
645.00 288.00 0.00 8.04 -3.63
646.00 288.00 0.00 8.04 -3.64
647.00 288.00 0.00 8.04 -3.64
648.00 288.00 0.00 8.04 -3.64
649.00 288.00 0.00 8.05 -3.64
650.00 288.00 0.00 8.05 -3.65
651.00 288.00 0.00 8.05 -3.65
652.00 288.00 0.00 8.05 -3.65
653.00 288.00 0.00 8.05 -3.65
654.00 288.00 0.00 8.05 -3.66
655.00 288.00 0.00 8.05 -3.66
656.00 288.00 0.00 8.05 -3.66
657.00 288.00 0.00 8.05 -3.66
658.00 288.00 0.00 8.05 -3.66
659.00 288.00 0.00 8.05 -3.67
660.00 288.00 0.00 8.05 -3.67
661.00 288.00 0.00 8.05 -3.67
662.00 288.00 0.00 8.05 -3.67
663.00 288.00 0.00 8.05 -3.67
664.00 288.00 0.00 8.06 -3.67
665.00 288.00 0.00 8.06 -3.68
666.00 288.00 0.00 8.06 -3.68
667.00 288.00 0.00 8.06 -3.68
668.00 288.00 0.00 8.06 -3.68
669.00 288.00 0.00 8.06 -3.68
670.00 288.00 0.00 8.06 -3.68
671.00 288.00 0.00 8.06 -3.68
672.00 288.00 0.00 8.06 -3.68
673.00 288.00 0.00 8.06 -3.68
674.00 288.00 0.00 8.06 -3.68
675.00 288.00 0.00 8.06 -3.68
676.00 288.00 0.00 8.06 -3.68
677.00 288.00 0.00 8.06 -3.68
678.00 288.00 0.00 8.06 -3.68
679.00 288.00 0.00 8.06 -3.68
680.00 288.00 0.00 8.06 -3.68
681.00 288.00 0.00 8.06 -3.68
682.00 288.00 0.00 8.06 -3.68
683.00 288.00 0.00 8.06 -3.68
684.00 288.00 0.00 8.06 -3.68
685.00 288.00 0.00 8.06 -3.68
686.00 288.00 0.00 8.06 -3.68
687.00 288.00 0.00 8.06 -3.68
688.00 288.00 0.00 8.06 -3.68
689.00 288.00 0.00 8.06 -3.68
690.00 288.00 0.00 8.06 -3.68
691.00 288.00 0.00 8.06 -3.68
692.00 288.00 0.00 8.06 -3.68
693.00 288.00 0.00 8.06 -3.68
694.00 288.00 0.00 8.06 -3.68
695.00 288.00 0.00 8.06 -3.68
696.00 288.00 0.00 8.06 -3.68
697.00 288.00 0.00 8.06 -3.68
698.00 288.00 0.00 8.06 -3.68
699.00 288.00 0.00 8.06 -3.68
700.00 288.00 0.00 8.06 -3.68
701.00 288.00 0.00 8.06 -3.68
702.00 288.00 0.00 8.06 -3.68
703.00 288.00 0.00 8.06 -3.68
704.00 288.00 0.00 8.06 -3.68
705.00 288.00 0.00 8.06 -3.68
706.00 288.00 0.00 8.06 -3.68
707.00 288.00 0.00 8.06 -3.68
708.00 288.00 0.00 8.06 -3.68
709.00 288.00 0.00 8.06 -3.68
710.00 288.00 0.00 8.06 -3.68
711.00 288.00 0.00 8.06 -3.68
712.00 288.00 0.00 8.06 -3.68
713.00 288.00 0.00 8.06 -3.68
714.00 288.00 0.00 8.06 -3.68
715.00 288.00 0.00 8.06 -3.68
716.00 288.00 0.00 8.06 -3.68
717.00 288.00 0.00 8.06 -3.68
718.00 288.00 0.00 8.06 -3.68
719.00 288.00 0.00 8.06 -3.68
720.00 288.00 0.00 8.06 -3.68
721.00 288.00 0.00 8.06 -3.68
722.00 288.00 0.00 8.06 -3.68
723.00 288.00 0.00 8.06 -3.68
724.00 288.00 0.00 8.06 -3.68
725.00 288.00 0.00 8.06 -3.68
726.00 288.00 0.00 8.06 -3.68
727.00 288.00 0.00 8.06 -3.68
728.00 288.00 0.00 8.06 -3.68
729.00 288.00 0.00 8.06 -3.68
730.00 288.00 0.00 8.06 -3.68
731.00 288.00 0.00 8.06 -3.68
732.00 288.00 0.00 8.06 -3.68
733.00 288.00 0.00 8.06 -3.68
734.00 288.00 0.00 8.06 -3.68
735.00 288.00 0.00 8.06 -3.68
736.00 288.00 0.00 8.06 -3.68
737.00 288.00 0.00 8.06 -3.68
738.00 288.00 0.00 8.06 -3.68
739.00 288.00 0.00 8.06 -3.68
740.00 288.00 0.00 8.06 -3.68
741.00 288.00 0.00 8.06 -3.68
742.00 288.00 0.00 8.06 -3.68
743.00 288.00 0.00 8.06 -3.68
744.00 288.00 0.00 8.06 -3.68
745.00 288.00 0.00 8.06 -3.68
746.00 288.00 0.00 8.06 -3.68
747.00 288.00 0.00 8.06 -3.68
748.00 288.00 0.00 8.06 -3.68
749.00 288.00 0.00 8.06 -3.68
750.00 288.00 0.00 8.06 -3.68
751.00 288.00 0.00 8.06 -3.68
752.00 288.00 0.00 8.06 -3.68
753.00 288.00 0.00 8.06 -3.68
754.00 288.00 0.00 8.06 -3.68
755.00 288.00 0.00 8.06 -3.68
756.00 288.00 0.00 8.06 -3.68
757.00 288.00 0.00 8.06 -3.68
758.00 288.00 0.00 8.06 -3.68
759.00 288.00 0.00 8.06 -3.68
760.00 288.00 0.00 8.06 -3.68
761.00 288.00 0.00 8.06 -3.68
762.00 288.00 0.00 8.06 -3.68
763.00 288.00 0.00 8.06 -3.68
764.00 288.00 0.00 8.06 -3.68
765.00 288.00 0.00 8.06 -3.68
766.00 288.00 0.00 8.06 -3.68
767.00 288.00 0.00 8.06 -3.68
768.00 288.00 0.00 8.06 -3.68
769.00 288.00 0.00 8.06 -3.68
770.00 288.00 0.00 8.06 -3.68
771.00 288.00 0.00 8.06 -3.68
772.00 288.00 0.00 8.06 -3.68
773.00 288.00 0.00 8.06 -3.68
774.00 288.00 0.00 8.06 -3.68
775.00 288.00 0.00 8.06 -3.68
776.00 288.00 0.00 8.06 -3.68
777.00 288.00 0.00 8.06 -3.68
778.00 288.00 0.00 8.06 -3.68
779.00 288.00 0.00 8.06 -3.68
780.00 288.00 0.00 8.06 -3.68
781.00 288.00 0.00 8.06 -3.68
782.00 288.00 0.00 8.06 -3.68
783.00 288.00 0.00 8.06 -3.68
784.00 288.00 0.00 8.06 -3.68
785.00 288.00 0.00 8.06 -3.68
786.00 288.00 0.00 8.06 -3.68
787.00 288.00 0.00 8.06 -3.68
788.00 288.00 0.00 8.06 -3.68
789.00 288.00 0.00 8.06 -3.68
790.00 288.00 0.00 8.06 -3.68
791.00 288.00 0.00 8.06 -3.68
792.00 288.00 0.00 8.06 -3.68
793.00 288.00 0.00 8.06 -3.68
794.00 288.00 0.00 8.06 -3.68
795.00 288.00 0.00 8.06 -3.68
796.00 288.00 0.00 8.06 -3.68
797.00 288.00 0.00 8.06 -3.68
798.00 288.00 0.00 8.06 -3.68
799.00 288.00 0.00 8.06 -3.68
800.00 288.00 0.00 8.06 -3.68
801.00 288.00 0.00 8.06 -3.68
802.00 288.00 0.00 8.06 -3.68
803.00 288.00 0.00 8.06 -3.68
804.00 288.00 0.00 8.06 -3.68
805.00 288.00 0.00 8.06 -3.68
806.00 288.00 0.00 8.06 -3.68
807.00 288.00 0.00 8.06 -3.68
808.00 288.00 0.00 8.06 -3.68
809.00 288.00 0.00 8.06 -3.68
810.00 288.00 0.00 8.06 -3.68
811.00 288.00 0.00 8.06 -3.68
812.00 288.00 0.00 8.06 -3.68
813.00 288.00 0.00 8.06 -3.68
814.00 288.00 0.00 8.06 -3.68
815.00 288.00 0.00 8.06 -3.68
816.00 288.00 0.00 8.06 -3.68
817.00 288.00 0.00 8.06 -3.68
818.00 288.00 0.00 8.06 -3.68
819.00 288.00 0.00 8.06 -3.68
820.00 288.00 0.00 8.06 -3.68
821.00 288.00 0.00 8.06 -3.68
822.00 288.00 0.00 8.06 -3.68
823.00 288.00 0.00 8.06 -3.68
824.00 288.00 0.00 8.06 -3.68
825.00 288.00 0.00 8.06 -3.68
826.00 288.00 0.00 8.06 -3.68
827.00 288.00 0.00 8.06 -3.68
828.00 288.00 0.00 8.06 -3.68
829.00 288.00 0.00 8.06 -3.68
830.00 288.00 0.00 8.06 -3.68
831.00 288.00 0.00 8.06 -3.68
