1000.00 288.00 00.00
0.00 288.00 0.00 2.03 2.94
1.00 288.00 0.00 2.03 2.94
2.00 288.00 0.00 2.03 2.94
3.00 288.00 0.00 2.03 2.94
4.00 288.00 0.00 2.03 2.94
5.00 288.00 0.00 2.03 2.94
6.00 288.00 0.00 2.03 2.94
7.00 288.00 0.00 2.03 2.94
8.00 288.00 0.00 2.03 2.94
9.00 288.00 0.00 2.03 2.94
10.00 288.00 0.00 2.03 2.94
11.00 288.00 0.00 2.03 2.94
12.00 288.00 0.00 2.03 2.94
13.00 288.00 0.00 2.03 2.94
14.00 288.00 0.00 2.03 2.94
15.00 288.00 0.00 2.03 2.94
16.00 288.00 0.00 2.03 2.94
17.00 288.00 0.00 2.03 2.94
18.00 288.00 0.00 2.03 2.94
19.00 288.00 0.00 2.03 2.94
20.00 288.00 0.00 2.03 2.94
21.00 288.00 0.00 2.03 2.94
22.00 288.00 0.00 2.03 2.94
23.00 288.00 0.00 2.03 2.94
24.00 288.00 0.00 2.03 2.94
25.00 288.00 0.00 2.03 2.94
26.00 288.00 0.00 2.03 2.94
27.00 288.00 0.00 2.03 2.94
28.00 288.00 0.00 2.03 2.94
29.00 288.00 0.00 2.03 2.94
30.00 288.00 0.00 2.03 2.94
31.00 288.00 0.00 2.03 2.94
32.00 288.00 0.00 2.03 2.94
33.00 288.00 0.00 2.03 2.94
34.00 288.00 0.00 2.03 2.94
35.00 288.00 0.00 2.03 2.94
36.00 288.00 0.00 2.03 2.94
37.00 288.00 0.00 2.03 2.94
38.00 288.00 0.00 2.03 2.94
39.00 288.00 0.00 2.03 2.94
40.00 288.00 0.00 2.03 2.94
41.00 288.00 0.00 2.03 2.94
42.00 288.00 0.00 2.03 2.94
43.00 288.00 0.00 2.03 2.94
44.00 288.00 0.00 2.03 2.94
45.00 288.00 0.00 2.03 2.94
46.00 288.00 0.00 2.03 2.94
47.00 288.00 0.00 2.03 2.94
48.00 288.00 0.00 2.03 2.94
49.00 288.00 0.00 2.03 2.94
50.00 288.00 0.00 2.04 2.94
51.00 288.00 0.00 2.04 2.94
52.00 288.00 0.00 2.04 2.94
53.00 288.00 0.00 2.04 2.94
54.00 288.00 0.00 2.04 2.94
55.00 288.00 0.00 2.04 2.93
56.00 288.00 0.00 2.04 2.93
57.00 288.00 0.00 2.05 2.93
58.00 288.00 0.00 2.05 2.93
59.00 288.00 0.00 2.05 2.93
60.00 288.00 0.00 2.05 2.93
61.00 288.00 0.00 2.05 2.93
62.00 288.00 0.00 2.06 2.93
63.00 288.00 0.00 2.06 2.92
64.00 288.00 0.00 2.06 2.92
65.00 288.00 0.00 2.06 2.92
66.00 288.00 0.00 2.07 2.92
67.00 288.00 0.00 2.07 2.92
68.00 288.00 0.00 2.07 2.92
69.00 288.00 0.00 2.08 2.91
70.00 288.00 0.00 2.08 2.91
71.00 288.00 0.00 2.08 2.91
72.00 288.00 0.00 2.09 2.91
73.00 288.00 0.00 2.09 2.91
74.00 288.00 0.00 2.09 2.91
75.00 288.00 0.00 2.10 2.90
76.00 288.00 0.00 2.10 2.90
77.00 288.00 0.00 2.11 2.90
78.00 288.00 0.00 2.11 2.90
79.00 288.00 0.00 2.11 2.89
80.00 288.00 0.00 2.12 2.89
81.00 288.00 0.00 2.12 2.89
82.00 288.00 0.00 2.13 2.89
83.00 288.00 0.00 2.13 2.88
84.00 288.00 0.00 2.14 2.88
85.00 288.00 0.00 2.14 2.88
86.00 288.00 0.00 2.15 2.88
87.00 288.00 0.00 2.15 2.87
88.00 288.00 0.00 2.16 2.87
89.00 288.00 0.00 2.16 2.87
90.00 288.00 0.00 2.17 2.86
91.00 288.00 0.00 2.17 2.86
92.00 288.00 0.00 2.18 2.86
93.00 288.00 0.00 2.19 2.85
94.00 288.00 0.00 2.19 2.85
95.00 288.00 0.00 2.20 2.85
96.00 288.00 0.00 2.20 2.84
97.00 288.00 0.00 2.21 2.84
98.00 288.00 0.00 2.22 2.84
99.00 288.00 0.00 2.22 2.83
100.00 288.00 0.00 2.23 2.83
101.00 288.00 0.00 2.24 2.82
102.00 288.00 0.00 2.24 2.82
103.00 288.00 0.00 2.25 2.82
104.00 288.00 0.00 2.26 2.81
105.00 288.00 0.00 2.26 2.81
106.00 288.00 0.00 2.27 2.81
107.00 288.00 0.00 2.28 2.80
108.00 288.00 0.00 2.29 2.80
109.00 288.00 0.00 2.29 2.79
110.00 288.00 0.00 2.30 2.79
111.00 288.00 0.00 2.31 2.78
112.00 288.00 0.00 2.32 2.78
113.00 288.00 0.00 2.33 2.77
114.00 288.00 0.00 2.33 2.77
115.00 288.00 0.00 2.34 2.77
116.00 288.00 0.00 2.35 2.76
117.00 288.00 0.00 2.36 2.76
118.00 288.00 0.00 2.37 2.75
119.00 288.00 0.00 2.38 2.75
120.00 288.00 0.00 2.39 2.74
121.00 288.00 0.00 2.39 2.74
122.00 288.00 0.00 2.40 2.73
123.00 288.00 0.00 2.41 2.73
124.00 288.00 0.00 2.42 2.72
125.00 288.00 0.00 2.43 2.71
126.00 288.00 0.00 2.44 2.71
127.00 288.00 0.00 2.45 2.70
128.00 288.00 0.00 2.46 2.70
129.00 288.00 0.00 2.47 2.69
130.00 288.00 0.00 2.48 2.69
131.00 288.00 0.00 2.49 2.68
132.00 288.00 0.00 2.50 2.68
133.00 288.00 0.00 2.51 2.67
134.00 288.00 0.00 2.52 2.66
135.00 288.00 0.00 2.53 2.66
136.00 288.00 0.00 2.54 2.65
137.00 288.00 0.00 2.55 2.65
138.00 288.00 0.00 2.56 2.64
139.00 288.00 0.00 2.57 2.63
140.00 288.00 0.00 2.59 2.63
141.00 288.00 0.00 2.60 2.62
142.00 288.00 0.00 2.61 2.61
143.00 288.00 0.00 2.62 2.61
144.00 288.00 0.00 2.63 2.60
145.00 288.00 0.00 2.64 2.60
146.00 288.00 0.00 2.65 2.59
147.00 288.00 0.00 2.67 2.58
148.00 288.00 0.00 2.68 2.57
149.00 288.00 0.00 2.69 2.57
150.00 288.00 0.00 2.70 2.56
151.00 288.00 0.00 2.71 2.55
152.00 288.00 0.00 2.73 2.55
153.00 288.00 0.00 2.74 2.54
154.00 288.00 0.00 2.75 2.53
155.00 288.00 0.00 2.76 2.53
156.00 288.00 0.00 2.78 2.52
157.00 288.00 0.00 2.79 2.51
158.00 288.00 0.00 2.80 2.50
159.00 288.00 0.00 2.82 2.50
160.00 288.00 0.00 2.83 2.49
161.00 288.00 0.00 2.84 2.48
162.00 288.00 0.00 2.86 2.47
163.00 288.00 0.00 2.87 2.46
164.00 288.00 0.00 2.88 2.46
165.00 288.00 0.00 2.90 2.45
166.00 288.00 0.00 2.91 2.44
167.00 288.00 0.00 2.93 2.43
168.00 288.00 0.00 2.94 2.42
169.00 288.00 0.00 2.95 2.42
170.00 288.00 0.00 2.97 2.41
171.00 288.00 0.00 2.98 2.40
172.00 288.00 0.00 3.00 2.39
173.00 288.00 0.00 3.01 2.38
174.00 288.00 0.00 3.03 2.37
175.00 288.00 0.00 3.04 2.37
176.00 288.00 0.00 3.06 2.36
177.00 288.00 0.00 3.07 2.35
178.00 288.00 0.00 3.09 2.34
179.00 288.00 0.00 3.10 2.33
180.00 288.00 0.00 3.12 2.32
181.00 288.00 0.00 3.13 2.31
182.00 288.00 0.00 3.15 2.30
183.00 288.00 0.00 3.17 2.29
184.00 288.00 0.00 3.18 2.28
185.00 288.00 0.00 3.20 2.28
186.00 288.00 0.00 3.21 2.27
187.00 288.00 0.00 3.23 2.26
188.00 288.00 0.00 3.25 2.25
189.00 288.00 0.00 3.26 2.24
190.00 288.00 0.00 3.28 2.23
191.00 288.00 0.00 3.30 2.22
192.00 288.00 0.00 3.31 2.21
193.00 288.00 0.00 3.33 2.20
194.00 288.00 0.00 3.35 2.19
195.00 288.00 0.00 3.36 2.18
196.00 288.00 0.00 3.38 2.17
197.00 288.00 0.00 3.40 2.16
198.00 288.00 0.00 3.42 2.15
199.00 288.00 0.00 3.43 2.14
200.00 288.00 0.00 3.45 2.13
201.00 288.00 0.00 3.47 2.12
202.00 288.00 0.00 3.49 2.11
203.00 288.00 0.00 3.51 2.10
204.00 288.00 0.00 3.52 2.09
205.00 288.00 0.00 3.54 2.07
206.00 288.00 0.00 3.56 2.06
207.00 288.00 0.00 3.58 2.05
208.00 288.00 0.00 3.60 2.04
209.00 288.00 0.00 3.62 2.03
210.00 288.00 0.00 3.64 2.02
211.00 288.00 0.00 3.65 2.01
212.00 288.00 0.00 3.67 2.00
213.00 288.00 0.00 3.69 1.99
214.00 288.00 0.00 3.71 1.98
215.00 288.00 0.00 3.73 1.96
216.00 288.00 0.00 3.75 1.95
217.00 288.00 0.00 3.77 1.94
218.00 288.00 0.00 3.79 1.93
219.00 288.00 0.00 3.81 1.92
220.00 288.00 0.00 3.83 1.91
221.00 288.00 0.00 3.85 1.89
222.00 288.00 0.00 3.87 1.88
223.00 288.00 0.00 3.89 1.87
224.00 288.00 0.00 3.91 1.86
225.00 288.00 0.00 3.93 1.85
226.00 288.00 0.00 3.95 1.84
227.00 288.00 0.00 3.97 1.82
228.00 288.00 0.00 3.99 1.81
229.00 288.00 0.00 4.01 1.80
230.00 288.00 0.00 4.03 1.79
231.00 288.00 0.00 4.05 1.78
232.00 288.00 0.00 4.07 1.76
233.00 288.00 0.00 4.09 1.75
234.00 288.00 0.00 4.11 1.74
235.00 288.00 0.00 4.13 1.73
236.00 288.00 0.00 4.15 1.72
237.00 288.00 0.00 4.17 1.71
238.00 288.00 0.00 4.19 1.69
239.00 288.00 0.00 4.21 1.68
240.00 288.00 0.00 4.23 1.67
241.00 288.00 0.00 4.25 1.66
242.00 288.00 0.00 4.27 1.65
243.00 288.00 0.00 4.29 1.63
244.00 288.00 0.00 4.31 1.62
245.00 288.00 0.00 4.33 1.61
246.00 288.00 0.00 4.35 1.60
247.00 288.00 0.00 4.37 1.59
248.00 288.00 0.00 4.39 1.57
249.00 288.00 0.00 4.41 1.56
250.00 288.00 0.00 4.43 1.55
251.00 288.00 0.00 4.45 1.54
252.00 288.00 0.00 4.47 1.53
253.00 288.00 0.00 4.49 1.52
254.00 288.00 0.00 4.51 1.50
255.00 288.00 0.00 4.53 1.49
256.00 288.00 0.00 4.55 1.48
257.00 288.00 0.00 4.57 1.47
258.00 288.00 0.00 4.59 1.46
259.00 288.00 0.00 4.61 1.44
260.00 288.00 0.00 4.63 1.43
261.00 288.00 0.00 4.65 1.42
262.00 288.00 0.00 4.67 1.41
263.00 288.00 0.00 4.69 1.40
264.00 288.00 0.00 4.71 1.38
265.00 288.00 0.00 4.73 1.37
266.00 288.00 0.00 4.75 1.36
267.00 288.00 0.00 4.77 1.35
268.00 288.00 0.00 4.79 1.34
269.00 288.00 0.00 4.81 1.32
270.00 288.00 0.00 4.83 1.31
271.00 288.00 0.00 4.85 1.30
272.00 288.00 0.00 4.87 1.29
273.00 288.00 0.00 4.89 1.28
274.00 288.00 0.00 4.91 1.26
275.00 288.00 0.00 4.93 1.25
276.00 288.00 0.00 4.95 1.24
277.00 288.00 0.00 4.97 1.23
278.00 288.00 0.00 4.99 1.22
279.00 288.00 0.00 5.01 1.20
280.00 288.00 0.00 5.03 1.19
281.00 288.00 0.00 5.05 1.18
282.00 288.00 0.00 5.07 1.17
283.00 288.00 0.00 5.09 1.16
284.00 288.00 0.00 5.11 1.14
285.00 288.00 0.00 5.13 1.13
286.00 288.00 0.00 5.15 1.12
287.00 288.00 0.00 5.17 1.11
288.00 288.00 0.00 5.19 1.10
289.00 288.00 0.00 5.21 1.08
290.00 288.00 0.00 5.23 1.07
291.00 288.00 0.00 5.25 1.06
292.00 288.00 0.00 5.27 1.05
293.00 288.00 0.00 5.29 1.03
294.00 288.00 0.00 5.31 1.02
295.00 288.00 0.00 5.33 1.01
296.00 288.00 0.00 5.35 1.00
297.00 288.00 0.00 5.37 0.99
298.00 288.00 0.00 5.39 0.97
299.00 288.00 0.00 5.41 0.96
300.00 288.00 0.00 5.43 0.95
301.00 288.00 0.00 5.45 0.94
302.00 288.00 0.00 5.47 0.93
303.00 288.00 0.00 5.49 0.91
304.00 288.00 0.00 5.51 0.90
305.00 288.00 0.00 5.53 0.89
306.00 288.00 0.00 5.55 0.88
307.00 288.00 0.00 5.57 0.87
308.00 288.00 0.00 5.59 0.85
309.00 288.00 0.00 5.61 0.84
310.00 288.00 0.00 5.63 0.83
311.00 288.00 0.00 5.65 0.82
312.00 288.00 0.00 5.67 0.80
313.00 288.00 0.00 5.69 0.79
314.00 288.00 0.00 5.71 0.78
315.00 288.00 0.00 5.73 0.77
316.00 288.00 0.00 5.75 0.76
317.00 288.00 0.00 5.77 0.74
318.00 288.00 0.00 5.79 0.73
319.00 288.00 0.00 5.81 0.72
320.00 288.00 0.00 5.83 0.71
321.00 288.00 0.00 5.85 0.70
322.00 288.00 0.00 5.87 0.68
323.00 288.00 0.00 5.89 0.67
324.00 288.00 0.00 5.91 0.66
325.00 288.00 0.00 5.93 0.65
326.00 288.00 0.00 5.95 0.63
327.00 288.00 0.00 5.97 0.62
328.00 288.00 0.00 5.99 0.61
329.00 288.00 0.00 6.01 0.60
330.00 288.00 0.00 6.03 0.59
331.00 288.00 0.00 6.05 0.57
332.00 288.00 0.00 6.07 0.56
333.00 288.00 0.00 6.09 0.55
334.00 288.00 0.00 6.11 0.54
335.00 288.00 0.00 6.13 0.52
336.00 288.00 0.00 6.15 0.51
337.00 288.00 0.00 6.17 0.50
338.00 288.00 0.00 6.19 0.49
339.00 288.00 0.00 6.21 0.48
340.00 288.00 0.00 6.23 0.46
341.00 288.00 0.00 6.25 0.45
342.00 288.00 0.00 6.27 0.44
343.00 288.00 0.00 6.29 0.43
344.00 288.00 0.00 6.31 0.42
345.00 288.00 0.00 6.33 0.40
346.00 288.00 0.00 6.35 0.39
347.00 288.00 0.00 6.37 0.38
348.00 288.00 0.00 6.39 0.37
349.00 288.00 0.00 6.41 0.35
350.00 288.00 0.00 6.43 0.34
351.00 288.00 0.00 6.45 0.33
352.00 288.00 0.00 6.47 0.32
353.00 288.00 0.00 6.49 0.31
354.00 288.00 0.00 6.51 0.29
355.00 288.00 0.00 6.53 0.28
356.00 288.00 0.00 6.55 0.27
357.00 288.00 0.00 6.57 0.26
358.00 288.00 0.00 6.59 0.24
359.00 288.00 0.00 6.61 0.23
360.00 288.00 0.00 6.63 0.22
361.00 288.00 0.00 6.65 0.21
362.00 288.00 0.00 6.67 0.20
363.00 288.00 0.00 6.69 0.18
364.00 288.00 0.00 6.71 0.17
365.00 288.00 0.00 6.73 0.16
366.00 288.00 0.00 6.75 0.15
367.00 288.00 0.00 6.77 0.13
368.00 288.00 0.00 6.79 0.12
369.00 288.00 0.00 6.81 0.11
370.00 288.00 0.00 6.83 0.10
371.00 288.00 0.00 6.85 0.09
372.00 288.00 0.00 6.87 0.07
373.00 288.00 0.00 6.89 0.06
374.00 288.00 0.00 6.91 0.05
375.00 288.00 0.00 6.93 0.04
376.00 288.00 0.00 6.95 0.02
377.00 288.00 0.00 6.97 0.01
378.00 288.00 0.00 6.99 -0.00
379.00 288.00 0.00 7.01 -0.01
380.00 288.00 0.00 7.03 -0.02
381.00 288.00 0.00 7.05 -0.04
382.00 288.00 0.00 7.07 -0.05
383.00 288.00 0.00 7.09 -0.06
384.00 288.00 0.00 7.11 -0.07
385.00 288.00 0.00 7.13 -0.09
386.00 288.00 0.00 7.15 -0.10
387.00 288.00 0.00 7.17 -0.11
388.00 288.00 0.00 7.19 -0.12
389.00 288.00 0.00 7.21 -0.13
390.00 288.00 0.00 7.23 -0.15
391.00 288.00 0.00 7.25 -0.16
392.00 288.00 0.00 7.27 -0.17
393.00 288.00 0.00 7.29 -0.18
394.00 288.00 0.00 7.31 -0.20
395.00 288.00 0.00 7.33 -0.21
396.00 288.00 0.00 7.35 -0.22
397.00 288.00 0.00 7.37 -0.23
398.00 288.00 0.00 7.39 -0.24
399.00 288.00 0.00 7.41 -0.26
400.00 288.00 0.00 7.43 -0.27
401.00 288.00 0.00 7.45 -0.28
402.00 288.00 0.00 7.47 -0.29
403.00 288.00 0.00 7.49 -0.31
404.00 288.00 0.00 7.51 -0.32
405.00 288.00 0.00 7.53 -0.33
406.00 288.00 0.00 7.55 -0.34
407.00 288.00 0.00 7.57 -0.35
408.00 288.00 0.00 7.59 -0.37
409.00 288.00 0.00 7.61 -0.38
410.00 288.00 0.00 7.63 -0.39
411.00 288.00 0.00 7.65 -0.40
412.00 288.00 0.00 7.67 -0.42
413.00 288.00 0.00 7.69 -0.43
414.00 288.00 0.00 7.71 -0.44
415.00 288.00 0.00 7.73 -0.45
416.00 288.00 0.00 7.75 -0.46
417.00 288.00 0.00 7.77 -0.48
418.00 288.00 0.00 7.79 -0.49
419.00 288.00 0.00 7.81 -0.50
420.00 288.00 0.00 7.83 -0.51
421.00 288.00 0.00 7.85 -0.52
422.00 288.00 0.00 7.87 -0.54
423.00 288.00 0.00 7.89 -0.55
424.00 288.00 0.00 7.91 -0.56
425.00 288.00 0.00 7.93 -0.57
426.00 288.00 0.00 7.95 -0.59
427.00 288.00 0.00 7.97 -0.60
428.00 288.00 0.00 7.99 -0.61
429.00 288.00 0.00 8.01 -0.62
430.00 288.00 0.00 8.03 -0.63
431.00 288.00 0.00 8.05 -0.65
432.00 288.00 0.00 8.07 -0.66
433.00 288.00 0.00 8.09 -0.67
434.00 288.00 0.00 8.11 -0.68
435.00 288.00 0.00 8.13 -0.70
436.00 288.00 0.00 8.15 -0.71
437.00 288.00 0.00 8.17 -0.72
438.00 288.00 0.00 8.19 -0.73
439.00 288.00 0.00 8.21 -0.74
440.00 288.00 0.00 8.23 -0.76
441.00 288.00 0.00 8.25 -0.77
442.00 288.00 0.00 8.27 -0.78
443.00 288.00 0.00 8.29 -0.79
444.00 288.00 0.00 8.31 -0.80
445.00 288.00 0.00 8.33 -0.82
446.00 288.00 0.00 8.35 -0.83
447.00 288.00 0.00 8.37 -0.84
448.00 288.00 0.00 8.39 -0.85
449.00 288.00 0.00 8.41 -0.87
450.00 288.00 0.00 8.43 -0.88
451.00 288.00 0.00 8.45 -0.89
452.00 288.00 0.00 8.47 -0.90
453.00 288.00 0.00 8.49 -0.91
454.00 288.00 0.00 8.51 -0.93
455.00 288.00 0.00 8.53 -0.94
456.00 288.00 0.00 8.55 -0.95
457.00 288.00 0.00 8.57 -0.96
458.00 288.00 0.00 8.59 -0.97
459.00 288.00 0.00 8.61 -0.99
460.00 288.00 0.00 8.63 -1.00
461.00 288.00 0.00 8.65 -1.01
462.00 288.00 0.00 8.67 -1.02
463.00 288.00 0.00 8.69 -1.03
464.00 288.00 0.00 8.71 -1.05
465.00 288.00 0.00 8.73 -1.06
466.00 288.00 0.00 8.75 -1.07
467.00 288.00 0.00 8.77 -1.08
468.00 288.00 0.00 8.79 -1.10
469.00 288.00 0.00 8.81 -1.11
470.00 288.00 0.00 8.83 -1.12
471.00 288.00 0.00 8.85 -1.13
472.00 288.00 0.00 8.87 -1.14
473.00 288.00 0.00 8.89 -1.16
474.00 288.00 0.00 8.91 -1.17
475.00 288.00 0.00 8.93 -1.18
476.00 288.00 0.00 8.95 -1.19
477.00 288.00 0.00 8.97 -1.20
478.00 288.00 0.00 8.99 -1.22
479.00 288.00 0.00 9.01 -1.23
480.00 288.00 0.00 9.03 -1.24
481.00 288.00 0.00 9.05 -1.25
482.00 288.00 0.00 9.07 -1.26
483.00 288.00 0.00 9.09 -1.28
484.00 288.00 0.00 9.11 -1.29
485.00 288.00 0.00 9.13 -1.30
486.00 288.00 0.00 9.15 -1.31
487.00 288.00 0.00 9.17 -1.32
488.00 288.00 0.00 9.19 -1.34
489.00 288.00 0.00 9.21 -1.35
490.00 288.00 0.00 9.23 -1.36
491.00 288.00 0.00 9.25 -1.37
492.00 288.00 0.00 9.27 -1.38
493.00 288.00 0.00 9.29 -1.40
494.00 288.00 0.00 9.31 -1.41
495.00 288.00 0.00 9.33 -1.42
496.00 288.00 0.00 9.35 -1.43
497.00 288.00 0.00 9.37 -1.44
498.00 288.00 0.00 9.39 -1.46
499.00 288.00 0.00 9.41 -1.47
500.00 288.00 0.00 9.43 -1.48
501.00 288.00 0.00 9.45 -1.49
502.00 288.00 0.00 9.47 -1.50
503.00 288.00 0.00 9.49 -1.52
504.00 288.00 0.00 9.51 -1.53
505.00 288.00 0.00 9.53 -1.54
506.00 288.00 0.00 9.55 -1.55
507.00 288.00 0.00 9.57 -1.56
508.00 288.00 0.00 9.59 -1.57
509.00 288.00 0.00 9.61 -1.59
510.00 288.00 0.00 9.63 -1.60
511.00 288.00 0.00 9.65 -1.61
512.00 288.00 0.00 9.67 -1.62
513.00 288.00 0.00 9.69 -1.63
514.00 288.00 0.00 9.71 -1.65
515.00 288.00 0.00 9.73 -1.66
516.00 288.00 0.00 9.75 -1.67
517.00 288.00 0.00 9.77 -1.68
518.00 288.00 0.00 9.79 -1.69
519.00 288.00 0.00 9.81 -1.71
520.00 288.00 0.00 9.83 -1.72
521.00 288.00 0.00 9.85 -1.73
522.00 288.00 0.00 9.87 -1.74
523.00 288.00 0.00 9.89 -1.75
524.00 288.00 0.00 9.91 -1.76
525.00 288.00 0.00 9.93 -1.78
526.00 288.00 0.00 9.95 -1.79
527.00 288.00 0.00 9.97 -1.80
528.00 288.00 0.00 9.99 -1.81
529.00 288.00 0.00 10.01 -1.82
530.00 288.00 0.00 10.03 -1.84
531.00 288.00 0.00 10.05 -1.85
532.00 288.00 0.00 10.07 -1.86
533.00 288.00 0.00 10.09 -1.87
534.00 288.00 0.00 10.11 -1.88
535.00 288.00 0.00 10.13 -1.89
536.00 288.00 0.00 10.15 -1.91
537.00 288.00 0.00 10.17 -1.92
538.00 288.00 0.00 10.19 -1.93
539.00 288.00 0.00 10.21 -1.94
540.00 288.00 0.00 10.23 -1.95
541.00 288.00 0.00 10.25 -1.96
542.00 288.00 0.00 10.27 -1.98
543.00 288.00 0.00 10.29 -1.99
544.00 288.00 0.00 10.31 -2.00
545.00 288.00 0.00 10.33 -2.01
546.00 288.00 0.00 10.35 -2.02
547.00 288.00 0.00 10.36 -2.03
548.00 288.00 0.00 10.38 -2.04
549.00 288.00 0.00 10.40 -2.05
550.00 288.00 0.00 10.42 -2.06
551.00 288.00 0.00 10.44 -2.07
552.00 288.00 0.00 10.46 -2.09
553.00 288.00 0.00 10.48 -2.10
554.00 288.00 0.00 10.49 -2.11
555.00 288.00 0.00 10.51 -2.12
556.00 288.00 0.00 10.53 -2.13
557.00 288.00 0.00 10.55 -2.14
558.00 288.00 0.00 10.57 -2.15
559.00 288.00 0.00 10.58 -2.16
560.00 288.00 0.00 10.60 -2.17
561.00 288.00 0.00 10.62 -2.18
562.00 288.00 0.00 10.64 -2.19
563.00 288.00 0.00 10.65 -2.20
564.00 288.00 0.00 10.67 -2.21
565.00 288.00 0.00 10.69 -2.22
566.00 288.00 0.00 10.70 -2.23
567.00 288.00 0.00 10.72 -2.24
568.00 288.00 0.00 10.74 -2.25
569.00 288.00 0.00 10.75 -2.26
570.00 288.00 0.00 10.77 -2.27
571.00 288.00 0.00 10.79 -2.28
572.00 288.00 0.00 10.80 -2.28
573.00 288.00 0.00 10.82 -2.29
574.00 288.00 0.00 10.83 -2.30
575.00 288.00 0.00 10.85 -2.31
576.00 288.00 0.00 10.87 -2.32
577.00 288.00 0.00 10.88 -2.33
578.00 288.00 0.00 10.90 -2.34
579.00 288.00 0.00 10.91 -2.35
580.00 288.00 0.00 10.93 -2.36
581.00 288.00 0.00 10.94 -2.37
582.00 288.00 0.00 10.96 -2.37
583.00 288.00 0.00 10.97 -2.38
584.00 288.00 0.00 10.99 -2.39
585.00 288.00 0.00 11.00 -2.40
586.00 288.00 0.00 11.02 -2.41
587.00 288.00 0.00 11.03 -2.42
588.00 288.00 0.00 11.05 -2.42
589.00 288.00 0.00 11.06 -2.43
590.00 288.00 0.00 11.07 -2.44
591.00 288.00 0.00 11.09 -2.45
592.00 288.00 0.00 11.10 -2.46
593.00 288.00 0.00 11.12 -2.46
594.00 288.00 0.00 11.13 -2.47
595.00 288.00 0.00 11.14 -2.48
596.00 288.00 0.00 11.16 -2.49
597.00 288.00 0.00 11.17 -2.50
598.00 288.00 0.00 11.18 -2.50
599.00 288.00 0.00 11.20 -2.51
600.00 288.00 0.00 11.21 -2.52
601.00 288.00 0.00 11.22 -2.53
602.00 288.00 0.00 11.24 -2.53
603.00 288.00 0.00 11.25 -2.54
604.00 288.00 0.00 11.26 -2.55
605.00 288.00 0.00 11.27 -2.55
606.00 288.00 0.00 11.29 -2.56
607.00 288.00 0.00 11.30 -2.57
608.00 288.00 0.00 11.31 -2.57
609.00 288.00 0.00 11.32 -2.58
610.00 288.00 0.00 11.33 -2.59
611.00 288.00 0.00 11.35 -2.60
612.00 288.00 0.00 11.36 -2.60
613.00 288.00 0.00 11.37 -2.61
614.00 288.00 0.00 11.38 -2.61
615.00 288.00 0.00 11.39 -2.62
616.00 288.00 0.00 11.40 -2.63
617.00 288.00 0.00 11.41 -2.63
618.00 288.00 0.00 11.43 -2.64
619.00 288.00 0.00 11.44 -2.65
620.00 288.00 0.00 11.45 -2.65
621.00 288.00 0.00 11.46 -2.66
622.00 288.00 0.00 11.47 -2.66
623.00 288.00 0.00 11.48 -2.67
624.00 288.00 0.00 11.49 -2.68
625.00 288.00 0.00 11.50 -2.68
626.00 288.00 0.00 11.51 -2.69
627.00 288.00 0.00 11.52 -2.69
628.00 288.00 0.00 11.53 -2.70
629.00 288.00 0.00 11.54 -2.70
630.00 288.00 0.00 11.55 -2.71
631.00 288.00 0.00 11.56 -2.71
632.00 288.00 0.00 11.57 -2.72
633.00 288.00 0.00 11.58 -2.73
634.00 288.00 0.00 11.59 -2.73
635.00 288.00 0.00 11.60 -2.74
636.00 288.00 0.00 11.61 -2.74
637.00 288.00 0.00 11.61 -2.75
638.00 288.00 0.00 11.62 -2.75
639.00 288.00 0.00 11.63 -2.76
640.00 288.00 0.00 11.64 -2.76
641.00 288.00 0.00 11.65 -2.77
642.00 288.00 0.00 11.66 -2.77
643.00 288.00 0.00 11.67 -2.77
644.00 288.00 0.00 11.67 -2.78
645.00 288.00 0.00 11.68 -2.78
646.00 288.00 0.00 11.69 -2.79
647.00 288.00 0.00 11.70 -2.79
648.00 288.00 0.00 11.71 -2.80
649.00 288.00 0.00 11.71 -2.80
650.00 288.00 0.00 11.72 -2.81
651.00 288.00 0.00 11.73 -2.81
652.00 288.00 0.00 11.74 -2.81
653.00 288.00 0.00 11.74 -2.82
654.00 288.00 0.00 11.75 -2.82
655.00 288.00 0.00 11.76 -2.82
656.00 288.00 0.00 11.76 -2.83
657.00 288.00 0.00 11.77 -2.83
658.00 288.00 0.00 11.78 -2.84
659.00 288.00 0.00 11.78 -2.84
660.00 288.00 0.00 11.79 -2.84
661.00 288.00 0.00 11.80 -2.85
662.00 288.00 0.00 11.80 -2.85
663.00 288.00 0.00 11.81 -2.85
664.00 288.00 0.00 11.81 -2.86
665.00 288.00 0.00 11.82 -2.86
666.00 288.00 0.00 11.83 -2.86
667.00 288.00 0.00 11.83 -2.87
668.00 288.00 0.00 11.84 -2.87
669.00 288.00 0.00 11.84 -2.87
670.00 288.00 0.00 11.85 -2.88
671.00 288.00 0.00 11.85 -2.88
672.00 288.00 0.00 11.86 -2.88
673.00 288.00 0.00 11.86 -2.88
674.00 288.00 0.00 11.87 -2.89
675.00 288.00 0.00 11.87 -2.89
676.00 288.00 0.00 11.88 -2.89
677.00 288.00 0.00 11.88 -2.89
678.00 288.00 0.00 11.89 -2.90
679.00 288.00 0.00 11.89 -2.90
680.00 288.00 0.00 11.89 -2.90
681.00 288.00 0.00 11.90 -2.90
682.00 288.00 0.00 11.90 -2.91
683.00 288.00 0.00 11.91 -2.91
684.00 288.00 0.00 11.91 -2.91
685.00 288.00 0.00 11.91 -2.91
686.00 288.00 0.00 11.92 -2.91
687.00 288.00 0.00 11.92 -2.91
688.00 288.00 0.00 11.92 -2.92
689.00 288.00 0.00 11.93 -2.92
690.00 288.00 0.00 11.93 -2.92
691.00 288.00 0.00 11.93 -2.92
692.00 288.00 0.00 11.94 -2.92
693.00 288.00 0.00 11.94 -2.92
694.00 288.00 0.00 11.94 -2.93
695.00 288.00 0.00 11.94 -2.93
696.00 288.00 0.00 11.95 -2.93
697.00 288.00 0.00 11.95 -2.93
698.00 288.00 0.00 11.95 -2.93
699.00 288.00 0.00 11.95 -2.93
700.00 288.00 0.00 11.95 -2.93
701.00 288.00 0.00 11.96 -2.93
702.00 288.00 0.00 11.96 -2.94
703.00 288.00 0.00 11.96 -2.94
704.00 288.00 0.00 11.96 -2.94
705.00 288.00 0.00 11.96 -2.94
706.00 288.00 0.00 11.96 -2.94
707.00 288.00 0.00 11.96 -2.94
708.00 288.00 0.00 11.97 -2.94
709.00 288.00 0.00 11.97 -2.94
710.00 288.00 0.00 11.97 -2.94
711.00 288.00 0.00 11.97 -2.94
712.00 288.00 0.00 11.97 -2.94
713.00 288.00 0.00 11.97 -2.94
714.00 288.00 0.00 11.97 -2.94
715.00 288.00 0.00 11.97 -2.94
716.00 288.00 0.00 11.97 -2.94
717.00 288.00 0.00 11.97 -2.94
718.00 288.00 0.00 11.97 -2.94
719.00 288.00 0.00 11.97 -2.94
720.00 288.00 0.00 11.97 -2.94
721.00 288.00 0.00 11.97 -2.94
722.00 288.00 0.00 11.97 -2.94
723.00 288.00 0.00 11.97 -2.94
724.00 288.00 0.00 11.97 -2.94
725.00 288.00 0.00 11.97 -2.94
726.00 288.00 0.00 11.97 -2.94
727.00 288.00 0.00 11.97 -2.94
728.00 288.00 0.00 11.97 -2.94
729.00 288.00 0.00 11.97 -2.94
730.00 288.00 0.00 11.97 -2.94
731.00 288.00 0.00 11.97 -2.94
732.00 288.00 0.00 11.97 -2.94
733.00 288.00 0.00 11.97 -2.94
734.00 288.00 0.00 11.97 -2.94
735.00 288.00 0.00 11.97 -2.94
736.00 288.00 0.00 11.97 -2.94
737.00 288.00 0.00 11.97 -2.94
738.00 288.00 0.00 11.97 -2.94
739.00 288.00 0.00 11.97 -2.94
740.00 288.00 0.00 11.97 -2.94
741.00 288.00 0.00 11.97 -2.94
742.00 288.00 0.00 11.97 -2.94
743.00 288.00 0.00 11.97 -2.94
744.00 288.00 0.00 11.97 -2.94
745.00 288.00 0.00 11.97 -2.94
746.00 288.00 0.00 11.97 -2.94
747.00 288.00 0.00 11.97 -2.94
748.00 288.00 0.00 11.97 -2.94
749.00 288.00 0.00 11.97 -2.94
750.00 288.00 0.00 11.97 -2.94
751.00 288.00 0.00 11.97 -2.94
752.00 288.00 0.00 11.97 -2.94
753.00 288.00 0.00 11.97 -2.94
754.00 288.00 0.00 11.97 -2.94
755.00 288.00 0.00 11.97 -2.94
756.00 288.00 0.00 11.97 -2.94
757.00 288.00 0.00 11.97 -2.94
758.00 288.00 0.00 11.97 -2.94
759.00 288.00 0.00 11.97 -2.94
760.00 288.00 0.00 11.97 -2.94
761.00 288.00 0.00 11.97 -2.94
762.00 288.00 0.00 11.97 -2.94
763.00 288.00 0.00 11.97 -2.94
764.00 288.00 0.00 11.97 -2.94
765.00 288.00 0.00 11.97 -2.94
766.00 288.00 0.00 11.97 -2.94
767.00 288.00 0.00 11.97 -2.94
768.00 288.00 0.00 11.97 -2.94
769.00 288.00 0.00 11.97 -2.94
770.00 288.00 0.00 11.97 -2.94
771.00 288.00 0.00 11.97 -2.94
772.00 288.00 0.00 11.97 -2.94
773.00 288.00 0.00 11.97 -2.94
774.00 288.00 0.00 11.97 -2.94
775.00 288.00 0.00 11.97 -2.94
776.00 288.00 0.00 11.97 -2.94
777.00 288.00 0.00 11.97 -2.94
778.00 288.00 0.00 11.97 -2.94
779.00 288.00 0.00 11.97 -2.94
780.00 288.00 0.00 11.97 -2.94
781.00 288.00 0.00 11.97 -2.94
782.00 288.00 0.00 11.97 -2.94
783.00 288.00 0.00 11.97 -2.94
784.00 288.00 0.00 11.97 -2.94
785.00 288.00 0.00 11.97 -2.94
786.00 288.00 0.00 11.97 -2.94
787.00 288.00 0.00 11.97 -2.94
788.00 288.00 0.00 11.97 -2.94
789.00 288.00 0.00 11.97 -2.94
790.00 288.00 0.00 11.97 -2.94
791.00 288.00 0.00 11.97 -2.94
792.00 288.00 0.00 11.97 -2.94
793.00 288.00 0.00 11.97 -2.94
794.00 288.00 0.00 11.97 -2.94
795.00 288.00 0.00 11.97 -2.94
796.00 288.00 0.00 11.97 -2.94
797.00 288.00 0.00 11.97 -2.94
798.00 288.00 0.00 11.97 -2.94
799.00 288.00 0.00 11.97 -2.94
800.00 288.00 0.00 11.97 -2.94
801.00 288.00 0.00 11.97 -2.94
802.00 288.00 0.00 11.97 -2.94
803.00 288.00 0.00 11.97 -2.94
804.00 288.00 0.00 11.97 -2.94
805.00 288.00 0.00 11.97 -2.94
806.00 288.00 0.00 11.97 -2.94
807.00 288.00 0.00 11.97 -2.94
808.00 288.00 0.00 11.97 -2.94
809.00 288.00 0.00 11.97 -2.94
810.00 288.00 0.00 11.97 -2.94
811.00 288.00 0.00 11.97 -2.94
812.00 288.00 0.00 11.97 -2.94
813.00 288.00 0.00 11.97 -2.94
814.00 288.00 0.00 11.97 -2.94
815.00 288.00 0.00 11.97 -2.94
816.00 288.00 0.00 11.97 -2.94
817.00 288.00 0.00 11.97 -2.94
818.00 288.00 0.00 11.97 -2.94
819.00 288.00 0.00 11.97 -2.94
820.00 288.00 0.00 11.97 -2.94
821.00 288.00 0.00 11.97 -2.94
822.00 288.00 0.00 11.97 -2.94
823.00 288.00 0.00 11.97 -2.94
824.00 288.00 0.00 11.97 -2.94
825.00 288.00 0.00 11.97 -2.94
826.00 288.00 0.00 11.97 -2.94
827.00 288.00 0.00 11.97 -2.94
828.00 288.00 0.00 11.97 -2.94
829.00 288.00 0.00 11.97 -2.94
830.00 288.00 0.00 11.97 -2.94
831.00 288.00 0.00 11.97 -2.94
