1000.00 288.00 00.00
0.00 288.00 0.00 10.73 -6.19
1.00 288.00 0.00 10.73 -6.19
2.00 288.00 0.00 10.73 -6.19
3.00 288.00 0.00 10.73 -6.19
4.00 288.00 0.00 10.73 -6.19
5.00 288.00 0.00 10.73 -6.19
6.00 288.00 0.00 10.73 -6.19
7.00 288.00 0.00 10.73 -6.19
8.00 288.00 0.00 10.73 -6.19
9.00 288.00 0.00 10.73 -6.19
10.00 288.00 0.00 10.73 -6.19
11.00 288.00 0.00 10.73 -6.19
12.00 288.00 0.00 10.73 -6.19
13.00 288.00 0.00 10.73 -6.19
14.00 288.00 0.00 10.73 -6.19
15.00 288.00 0.00 10.73 -6.19
16.00 288.00 0.00 10.73 -6.19
17.00 288.00 0.00 10.73 -6.19
18.00 288.00 0.00 10.73 -6.19
19.00 288.00 0.00 10.73 -6.19
20.00 288.00 0.00 10.73 -6.19
21.00 288.00 0.00 10.73 -6.19
22.00 288.00 0.00 10.73 -6.19
23.00 288.00 0.00 10.73 -6.19
24.00 288.00 0.00 10.73 -6.19
25.00 288.00 0.00 10.73 -6.19
26.00 288.00 0.00 10.73 -6.19
27.00 288.00 0.00 10.73 -6.19
28.00 288.00 0.00 10.73 -6.19
29.00 288.00 0.00 10.73 -6.19
30.00 288.00 0.00 10.73 -6.19
31.00 288.00 0.00 10.73 -6.19
32.00 288.00 0.00 10.73 -6.19
33.00 288.00 0.00 10.73 -6.19
34.00 288.00 0.00 10.73 -6.19
35.00 288.00 0.00 10.73 -6.19
36.00 288.00 0.00 10.73 -6.19
37.00 288.00 0.00 10.73 -6.19
38.00 288.00 0.00 10.73 -6.19
39.00 288.00 0.00 10.73 -6.19
40.00 288.00 0.00 10.73 -6.19
41.00 288.00 0.00 10.73 -6.19
42.00 288.00 0.00 10.73 -6.19
43.00 288.00 0.00 10.73 -6.19
44.00 288.00 0.00 10.73 -6.19
45.00 288.00 0.00 10.73 -6.19
46.00 288.00 0.00 10.73 -6.19
47.00 288.00 0.00 10.73 -6.19
48.00 288.00 0.00 10.72 -6.18
49.00 288.00 0.00 10.72 -6.18
50.00 288.00 0.00 10.72 -6.18
51.00 288.00 0.00 10.72 -6.18
52.00 288.00 0.00 10.72 -6.18
53.00 288.00 0.00 10.72 -6.18
54.00 288.00 0.00 10.72 -6.18
55.00 288.00 0.00 10.72 -6.18
56.00 288.00 0.00 10.72 -6.18
57.00 288.00 0.00 10.72 -6.18
58.00 288.00 0.00 10.71 -6.17
59.00 288.00 0.00 10.71 -6.17
60.00 288.00 0.00 10.71 -6.17
61.00 288.00 0.00 10.71 -6.17
62.00 288.00 0.00 10.71 -6.17
63.00 288.00 0.00 10.71 -6.17
64.00 288.00 0.00 10.70 -6.16
65.00 288.00 0.00 10.70 -6.16
66.00 288.00 0.00 10.70 -6.16
67.00 288.00 0.00 10.70 -6.16
68.00 288.00 0.00 10.69 -6.16
69.00 288.00 0.00 10.69 -6.15
70.00 288.00 0.00 10.69 -6.15
71.00 288.00 0.00 10.69 -6.15
72.00 288.00 0.00 10.68 -6.15
73.00 288.00 0.00 10.68 -6.14
74.00 288.00 0.00 10.68 -6.14
75.00 288.00 0.00 10.68 -6.14
76.00 288.00 0.00 10.67 -6.13
77.00 288.00 0.00 10.67 -6.13
78.00 288.00 0.00 10.67 -6.13
79.00 288.00 0.00 10.66 -6.12
80.00 288.00 0.00 10.66 -6.12
81.00 288.00 0.00 10.66 -6.12
82.00 288.00 0.00 10.65 -6.11
83.00 288.00 0.00 10.65 -6.11
84.00 288.00 0.00 10.65 -6.11
85.00 288.00 0.00 10.64 -6.10
86.00 288.00 0.00 10.64 -6.10
87.00 288.00 0.00 10.64 -6.10
88.00 288.00 0.00 10.63 -6.09
89.00 288.00 0.00 10.63 -6.09
90.00 288.00 0.00 10.62 -6.08
91.00 288.00 0.00 10.62 -6.08
92.00 288.00 0.00 10.62 -6.08
93.00 288.00 0.00 10.61 -6.07
94.00 288.00 0.00 10.61 -6.07
95.00 288.00 0.00 10.60 -6.06
96.00 288.00 0.00 10.60 -6.06
97.00 288.00 0.00 10.59 -6.05
98.00 288.00 0.00 10.59 -6.05
99.00 288.00 0.00 10.58 -6.04
100.00 288.00 0.00 10.58 -6.04
101.00 288.00 0.00 10.57 -6.03
102.00 288.00 0.00 10.57 -6.03
103.00 288.00 0.00 10.56 -6.02
104.00 288.00 0.00 10.56 -6.02
105.00 288.00 0.00 10.55 -6.01
106.00 288.00 0.00 10.55 -6.00
107.00 288.00 0.00 10.54 -6.00
108.00 288.00 0.00 10.54 -5.99
109.00 288.00 0.00 10.53 -5.99
110.00 288.00 0.00 10.52 -5.98
111.00 288.00 0.00 10.52 -5.97
112.00 288.00 0.00 10.51 -5.97
113.00 288.00 0.00 10.51 -5.96
114.00 288.00 0.00 10.50 -5.95
115.00 288.00 0.00 10.49 -5.95
116.00 288.00 0.00 10.49 -5.94
117.00 288.00 0.00 10.48 -5.93
118.00 288.00 0.00 10.47 -5.93
119.00 288.00 0.00 10.47 -5.92
120.00 288.00 0.00 10.46 -5.91
121.00 288.00 0.00 10.45 -5.90
122.00 288.00 0.00 10.45 -5.90
123.00 288.00 0.00 10.44 -5.89
124.00 288.00 0.00 10.43 -5.88
125.00 288.00 0.00 10.43 -5.87
126.00 288.00 0.00 10.42 -5.87
127.00 288.00 0.00 10.41 -5.86
128.00 288.00 0.00 10.41 -5.85
129.00 288.00 0.00 10.40 -5.84
130.00 288.00 0.00 10.39 -5.83
131.00 288.00 0.00 10.38 -5.82
132.00 288.00 0.00 10.38 -5.82
133.00 288.00 0.00 10.37 -5.81
134.00 288.00 0.00 10.36 -5.80
135.00 288.00 0.00 10.35 -5.79
136.00 288.00 0.00 10.34 -5.78
137.00 288.00 0.00 10.34 -5.77
138.00 288.00 0.00 10.33 -5.76
139.00 288.00 0.00 10.32 -5.75
140.00 288.00 0.00 10.31 -5.74
141.00 288.00 0.00 10.30 -5.73
142.00 288.00 0.00 10.29 -5.72
143.00 288.00 0.00 10.29 -5.71
144.00 288.00 0.00 10.28 -5.70
145.00 288.00 0.00 10.27 -5.69
146.00 288.00 0.00 10.26 -5.68
147.00 288.00 0.00 10.25 -5.67
148.00 288.00 0.00 10.24 -5.66
149.00 288.00 0.00 10.23 -5.65
150.00 288.00 0.00 10.22 -5.64
151.00 288.00 0.00 10.21 -5.63
152.00 288.00 0.00 10.21 -5.62
153.00 288.00 0.00 10.20 -5.60
154.00 288.00 0.00 10.19 -5.59
155.00 288.00 0.00 10.18 -5.58
156.00 288.00 0.00 10.17 -5.57
157.00 288.00 0.00 10.16 -5.56
158.00 288.00 0.00 10.15 -5.54
159.00 288.00 0.00 10.14 -5.53
160.00 288.00 0.00 10.13 -5.52
161.00 288.00 0.00 10.12 -5.51
162.00 288.00 0.00 10.11 -5.49
163.00 288.00 0.00 10.10 -5.48
164.00 288.00 0.00 10.09 -5.47
165.00 288.00 0.00 10.08 -5.45
166.00 288.00 0.00 10.07 -5.44
167.00 288.00 0.00 10.06 -5.43
168.00 288.00 0.00 10.05 -5.41
169.00 288.00 0.00 10.03 -5.40
170.00 288.00 0.00 10.02 -5.39
171.00 288.00 0.00 10.01 -5.37
172.00 288.00 0.00 10.00 -5.36
173.00 288.00 0.00 9.99 -5.34
174.00 288.00 0.00 9.98 -5.33
175.00 288.00 0.00 9.97 -5.31
176.00 288.00 0.00 9.96 -5.30
177.00 288.00 0.00 9.95 -5.28
178.00 288.00 0.00 9.93 -5.27
179.00 288.00 0.00 9.92 -5.25
180.00 288.00 0.00 9.91 -5.24
181.00 288.00 0.00 9.90 -5.22
182.00 288.00 0.00 9.89 -5.20
183.00 288.00 0.00 9.88 -5.19
184.00 288.00 0.00 9.86 -5.17
185.00 288.00 0.00 9.85 -5.15
186.00 288.00 0.00 9.84 -5.14
187.00 288.00 0.00 9.83 -5.12
188.00 288.00 0.00 9.81 -5.10
189.00 288.00 0.00 9.80 -5.09
190.00 288.00 0.00 9.79 -5.07
191.00 288.00 0.00 9.78 -5.05
192.00 288.00 0.00 9.76 -5.03
193.00 288.00 0.00 9.75 -5.02
194.00 288.00 0.00 9.74 -5.00
195.00 288.00 0.00 9.73 -4.98
196.00 288.00 0.00 9.71 -4.96
197.00 288.00 0.00 9.70 -4.94
198.00 288.00 0.00 9.69 -4.92
199.00 288.00 0.00 9.67 -4.90
200.00 288.00 0.00 9.66 -4.88
201.00 288.00 0.00 9.65 -4.86
202.00 288.00 0.00 9.63 -4.84
203.00 288.00 0.00 9.62 -4.82
204.00 288.00 0.00 9.61 -4.80
205.00 288.00 0.00 9.59 -4.78
206.00 288.00 0.00 9.58 -4.76
207.00 288.00 0.00 9.57 -4.74
208.00 288.00 0.00 9.55 -4.72
209.00 288.00 0.00 9.54 -4.70
210.00 288.00 0.00 9.52 -4.68
211.00 288.00 0.00 9.51 -4.66
212.00 288.00 0.00 9.49 -4.63
213.00 288.00 0.00 9.48 -4.61
214.00 288.00 0.00 9.47 -4.59
215.00 288.00 0.00 9.45 -4.57
216.00 288.00 0.00 9.44 -4.55
217.00 288.00 0.00 9.42 -4.52
218.00 288.00 0.00 9.41 -4.50
219.00 288.00 0.00 9.39 -4.48
220.00 288.00 0.00 9.38 -4.45
221.00 288.00 0.00 9.36 -4.43
222.00 288.00 0.00 9.35 -4.41
223.00 288.00 0.00 9.33 -4.38
224.00 288.00 0.00 9.32 -4.36
225.00 288.00 0.00 9.30 -4.33
226.00 288.00 0.00 9.29 -4.31
227.00 288.00 0.00 9.27 -4.29
228.00 288.00 0.00 9.26 -4.26
229.00 288.00 0.00 9.24 -4.24
230.00 288.00 0.00 9.23 -4.21
231.00 288.00 0.00 9.21 -4.19
232.00 288.00 0.00 9.20 -4.16
233.00 288.00 0.00 9.18 -4.14
234.00 288.00 0.00 9.17 -4.11
235.00 288.00 0.00 9.15 -4.09
236.00 288.00 0.00 9.14 -4.06
237.00 288.00 0.00 9.12 -4.04
238.00 288.00 0.00 9.11 -4.02
239.00 288.00 0.00 9.09 -3.99
240.00 288.00 0.00 9.08 -3.96
241.00 288.00 0.00 9.06 -3.94
242.00 288.00 0.00 9.05 -3.91
243.00 288.00 0.00 9.03 -3.89
244.00 288.00 0.00 9.02 -3.86
245.00 288.00 0.00 9.00 -3.84
246.00 288.00 0.00 8.99 -3.81
247.00 288.00 0.00 8.97 -3.79
248.00 288.00 0.00 8.96 -3.76
249.00 288.00 0.00 8.94 -3.74
250.00 288.00 0.00 8.93 -3.71
251.00 288.00 0.00 8.91 -3.68
252.00 288.00 0.00 8.90 -3.66
253.00 288.00 0.00 8.88 -3.63
254.00 288.00 0.00 8.87 -3.61
255.00 288.00 0.00 8.85 -3.58
256.00 288.00 0.00 8.84 -3.55
257.00 288.00 0.00 8.82 -3.53
258.00 288.00 0.00 8.81 -3.50
259.00 288.00 0.00 8.79 -3.47
260.00 288.00 0.00 8.78 -3.45
261.00 288.00 0.00 8.76 -3.42
262.00 288.00 0.00 8.75 -3.39
263.00 288.00 0.00 8.73 -3.37
264.00 288.00 0.00 8.72 -3.34
265.00 288.00 0.00 8.70 -3.31
266.00 288.00 0.00 8.69 -3.29
267.00 288.00 0.00 8.67 -3.26
268.00 288.00 0.00 8.66 -3.23
269.00 288.00 0.00 8.64 -3.21
270.00 288.00 0.00 8.63 -3.18
271.00 288.00 0.00 8.61 -3.15
272.00 288.00 0.00 8.60 -3.12
273.00 288.00 0.00 8.58 -3.10
274.00 288.00 0.00 8.57 -3.07
275.00 288.00 0.00 8.55 -3.04
276.00 288.00 0.00 8.54 -3.01
277.00 288.00 0.00 8.52 -2.99
278.00 288.00 0.00 8.51 -2.96
279.00 288.00 0.00 8.49 -2.93
280.00 288.00 0.00 8.48 -2.90
281.00 288.00 0.00 8.46 -2.88
282.00 288.00 0.00 8.45 -2.85
283.00 288.00 0.00 8.43 -2.82
284.00 288.00 0.00 8.42 -2.79
285.00 288.00 0.00 8.40 -2.76
286.00 288.00 0.00 8.39 -2.74
287.00 288.00 0.00 8.37 -2.71
288.00 288.00 0.00 8.36 -2.68
289.00 288.00 0.00 8.34 -2.65
290.00 288.00 0.00 8.33 -2.62
291.00 288.00 0.00 8.31 -2.59
292.00 288.00 0.00 8.30 -2.57
293.00 288.00 0.00 8.28 -2.54
294.00 288.00 0.00 8.27 -2.51
295.00 288.00 0.00 8.25 -2.48
296.00 288.00 0.00 8.24 -2.45
297.00 288.00 0.00 8.22 -2.42
298.00 288.00 0.00 8.21 -2.39
299.00 288.00 0.00 8.19 -2.37
300.00 288.00 0.00 8.18 -2.34
301.00 288.00 0.00 8.16 -2.31
302.00 288.00 0.00 8.15 -2.28
303.00 288.00 0.00 8.13 -2.25
304.00 288.00 0.00 8.12 -2.22
305.00 288.00 0.00 8.10 -2.19
306.00 288.00 0.00 8.09 -2.16
307.00 288.00 0.00 8.07 -2.13
308.00 288.00 0.00 8.06 -2.10
309.00 288.00 0.00 8.04 -2.08
310.00 288.00 0.00 8.03 -2.05
311.00 288.00 0.00 8.01 -2.02
312.00 288.00 0.00 8.00 -1.99
313.00 288.00 0.00 7.98 -1.96
314.00 288.00 0.00 7.97 -1.93
315.00 288.00 0.00 7.95 -1.90
316.00 288.00 0.00 7.94 -1.87
317.00 288.00 0.00 7.92 -1.84
318.00 288.00 0.00 7.91 -1.81
319.00 288.00 0.00 7.89 -1.78
320.00 288.00 0.00 7.88 -1.75
321.00 288.00 0.00 7.86 -1.72
322.00 288.00 0.00 7.85 -1.69
323.00 288.00 0.00 7.83 -1.66
324.00 288.00 0.00 7.82 -1.63
325.00 288.00 0.00 7.80 -1.60
326.00 288.00 0.00 7.79 -1.57
327.00 288.00 0.00 7.77 -1.54
328.00 288.00 0.00 7.76 -1.52
329.00 288.00 0.00 7.74 -1.49
330.00 288.00 0.00 7.73 -1.46
331.00 288.00 0.00 7.71 -1.43
332.00 288.00 0.00 7.70 -1.40
333.00 288.00 0.00 7.68 -1.37
334.00 288.00 0.00 7.67 -1.34
335.00 288.00 0.00 7.65 -1.31
336.00 288.00 0.00 7.64 -1.28
337.00 288.00 0.00 7.62 -1.25
338.00 288.00 0.00 7.61 -1.22
339.00 288.00 0.00 7.59 -1.19
340.00 288.00 0.00 7.58 -1.16
341.00 288.00 0.00 7.56 -1.13
342.00 288.00 0.00 7.55 -1.10
343.00 288.00 0.00 7.53 -1.06
344.00 288.00 0.00 7.52 -1.03
345.00 288.00 0.00 7.50 -1.00
346.00 288.00 0.00 7.49 -0.97
347.00 288.00 0.00 7.47 -0.94
348.00 288.00 0.00 7.46 -0.91
349.00 288.00 0.00 7.44 -0.88
350.00 288.00 0.00 7.43 -0.85
351.00 288.00 0.00 7.41 -0.82
352.00 288.00 0.00 7.40 -0.79
353.00 288.00 0.00 7.38 -0.76
354.00 288.00 0.00 7.37 -0.73
355.00 288.00 0.00 7.35 -0.70
356.00 288.00 0.00 7.34 -0.67
357.00 288.00 0.00 7.32 -0.64
358.00 288.00 0.00 7.31 -0.61
359.00 288.00 0.00 7.29 -0.58
360.00 288.00 0.00 7.28 -0.55
361.00 288.00 0.00 7.26 -0.52
362.00 288.00 0.00 7.25 -0.49
363.00 288.00 0.00 7.23 -0.46
364.00 288.00 0.00 7.22 -0.43
365.00 288.00 0.00 7.20 -0.40
366.00 288.00 0.00 7.19 -0.37
367.00 288.00 0.00 7.17 -0.34
368.00 288.00 0.00 7.16 -0.31
369.00 288.00 0.00 7.14 -0.27
370.00 288.00 0.00 7.13 -0.24
371.00 288.00 0.00 7.11 -0.21
372.00 288.00 0.00 7.10 -0.18
373.00 288.00 0.00 7.08 -0.15
374.00 288.00 0.00 7.07 -0.12
375.00 288.00 0.00 7.05 -0.09
376.00 288.00 0.00 7.04 -0.06
377.00 288.00 0.00 7.02 -0.03
378.00 288.00 0.00 7.01 0.00
379.00 288.00 0.00 6.99 0.03
380.00 288.00 0.00 6.98 0.06
381.00 288.00 0.00 6.96 0.09
382.00 288.00 0.00 6.95 0.12
383.00 288.00 0.00 6.93 0.15
384.00 288.00 0.00 6.92 0.18
385.00 288.00 0.00 6.90 0.21
386.00 288.00 0.00 6.89 0.24
387.00 288.00 0.00 6.87 0.27
388.00 288.00 0.00 6.86 0.31
389.00 288.00 0.00 6.84 0.34
390.00 288.00 0.00 6.83 0.37
391.00 288.00 0.00 6.81 0.40
392.00 288.00 0.00 6.80 0.43
393.00 288.00 0.00 6.78 0.46
394.00 288.00 0.00 6.77 0.49
395.00 288.00 0.00 6.75 0.52
396.00 288.00 0.00 6.74 0.55
397.00 288.00 0.00 6.72 0.58
398.00 288.00 0.00 6.71 0.61
399.00 288.00 0.00 6.69 0.64
400.00 288.00 0.00 6.68 0.67
401.00 288.00 0.00 6.66 0.70
402.00 288.00 0.00 6.65 0.73
403.00 288.00 0.00 6.63 0.76
404.00 288.00 0.00 6.62 0.79
405.00 288.00 0.00 6.60 0.82
406.00 288.00 0.00 6.59 0.85
407.00 288.00 0.00 6.57 0.88
408.00 288.00 0.00 6.56 0.91
409.00 288.00 0.00 6.54 0.94
410.00 288.00 0.00 6.53 0.97
411.00 288.00 0.00 6.51 1.00
412.00 288.00 0.00 6.50 1.03
413.00 288.00 0.00 6.48 1.06
414.00 288.00 0.00 6.47 1.10
415.00 288.00 0.00 6.45 1.13
416.00 288.00 0.00 6.44 1.16
417.00 288.00 0.00 6.42 1.19
418.00 288.00 0.00 6.41 1.22
419.00 288.00 0.00 6.39 1.25
420.00 288.00 0.00 6.38 1.28
421.00 288.00 0.00 6.36 1.31
422.00 288.00 0.00 6.35 1.34
423.00 288.00 0.00 6.33 1.37
424.00 288.00 0.00 6.32 1.40
425.00 288.00 0.00 6.30 1.43
426.00 288.00 0.00 6.29 1.46
427.00 288.00 0.00 6.27 1.49
428.00 288.00 0.00 6.26 1.52
429.00 288.00 0.00 6.24 1.54
430.00 288.00 0.00 6.23 1.57
431.00 288.00 0.00 6.21 1.60
432.00 288.00 0.00 6.20 1.63
433.00 288.00 0.00 6.18 1.66
434.00 288.00 0.00 6.17 1.69
435.00 288.00 0.00 6.15 1.72
436.00 288.00 0.00 6.14 1.75
437.00 288.00 0.00 6.12 1.78
438.00 288.00 0.00 6.11 1.81
439.00 288.00 0.00 6.09 1.84
440.00 288.00 0.00 6.08 1.87
441.00 288.00 0.00 6.06 1.90
442.00 288.00 0.00 6.05 1.93
443.00 288.00 0.00 6.03 1.96
444.00 288.00 0.00 6.02 1.99
445.00 288.00 0.00 6.00 2.02
446.00 288.00 0.00 5.99 2.05
447.00 288.00 0.00 5.97 2.08
448.00 288.00 0.00 5.96 2.10
449.00 288.00 0.00 5.94 2.13
450.00 288.00 0.00 5.93 2.16
451.00 288.00 0.00 5.91 2.19
452.00 288.00 0.00 5.90 2.22
453.00 288.00 0.00 5.88 2.25
454.00 288.00 0.00 5.87 2.28
455.00 288.00 0.00 5.85 2.31
456.00 288.00 0.00 5.84 2.34
457.00 288.00 0.00 5.82 2.37
458.00 288.00 0.00 5.81 2.39
459.00 288.00 0.00 5.79 2.42
460.00 288.00 0.00 5.78 2.45
461.00 288.00 0.00 5.76 2.48
462.00 288.00 0.00 5.75 2.51
463.00 288.00 0.00 5.73 2.54
464.00 288.00 0.00 5.72 2.57
465.00 288.00 0.00 5.70 2.59
466.00 288.00 0.00 5.69 2.62
467.00 288.00 0.00 5.67 2.65
468.00 288.00 0.00 5.66 2.68
469.00 288.00 0.00 5.64 2.71
470.00 288.00 0.00 5.63 2.74
471.00 288.00 0.00 5.61 2.76
472.00 288.00 0.00 5.60 2.79
473.00 288.00 0.00 5.58 2.82
474.00 288.00 0.00 5.57 2.85
475.00 288.00 0.00 5.55 2.88
476.00 288.00 0.00 5.54 2.90
477.00 288.00 0.00 5.52 2.93
478.00 288.00 0.00 5.51 2.96
479.00 288.00 0.00 5.49 2.99
480.00 288.00 0.00 5.48 3.01
481.00 288.00 0.00 5.46 3.04
482.00 288.00 0.00 5.45 3.07
483.00 288.00 0.00 5.43 3.10
484.00 288.00 0.00 5.42 3.12
485.00 288.00 0.00 5.40 3.15
486.00 288.00 0.00 5.39 3.18
487.00 288.00 0.00 5.37 3.21
488.00 288.00 0.00 5.36 3.23
489.00 288.00 0.00 5.34 3.26
490.00 288.00 0.00 5.33 3.29
491.00 288.00 0.00 5.31 3.31
492.00 288.00 0.00 5.30 3.34
493.00 288.00 0.00 5.28 3.37
494.00 288.00 0.00 5.27 3.39
495.00 288.00 0.00 5.25 3.42
496.00 288.00 0.00 5.24 3.45
497.00 288.00 0.00 5.22 3.47
498.00 288.00 0.00 5.21 3.50
499.00 288.00 0.00 5.19 3.53
500.00 288.00 0.00 5.18 3.55
501.00 288.00 0.00 5.16 3.58
502.00 288.00 0.00 5.15 3.61
503.00 288.00 0.00 5.13 3.63
504.00 288.00 0.00 5.12 3.66
505.00 288.00 0.00 5.10 3.68
506.00 288.00 0.00 5.09 3.71
507.00 288.00 0.00 5.07 3.74
508.00 288.00 0.00 5.06 3.76
509.00 288.00 0.00 5.04 3.79
510.00 288.00 0.00 5.03 3.81
511.00 288.00 0.00 5.01 3.84
512.00 288.00 0.00 5.00 3.86
513.00 288.00 0.00 4.98 3.89
514.00 288.00 0.00 4.97 3.91
515.00 288.00 0.00 4.95 3.94
516.00 288.00 0.00 4.94 3.96
517.00 288.00 0.00 4.92 3.99
518.00 288.00 0.00 4.91 4.02
519.00 288.00 0.00 4.89 4.04
520.00 288.00 0.00 4.88 4.06
521.00 288.00 0.00 4.86 4.09
522.00 288.00 0.00 4.85 4.11
523.00 288.00 0.00 4.83 4.14
524.00 288.00 0.00 4.82 4.16
525.00 288.00 0.00 4.80 4.19
526.00 288.00 0.00 4.79 4.21
527.00 288.00 0.00 4.77 4.24
528.00 288.00 0.00 4.76 4.26
529.00 288.00 0.00 4.74 4.29
530.00 288.00 0.00 4.73 4.31
531.00 288.00 0.00 4.71 4.33
532.00 288.00 0.00 4.70 4.36
533.00 288.00 0.00 4.68 4.38
534.00 288.00 0.00 4.67 4.41
535.00 288.00 0.00 4.65 4.43
536.00 288.00 0.00 4.64 4.45
537.00 288.00 0.00 4.62 4.48
538.00 288.00 0.00 4.61 4.50
539.00 288.00 0.00 4.59 4.52
540.00 288.00 0.00 4.58 4.55
541.00 288.00 0.00 4.56 4.57
542.00 288.00 0.00 4.55 4.59
543.00 288.00 0.00 4.53 4.61
544.00 288.00 0.00 4.52 4.63
545.00 288.00 0.00 4.51 4.66
546.00 288.00 0.00 4.49 4.68
547.00 288.00 0.00 4.48 4.70
548.00 288.00 0.00 4.46 4.72
549.00 288.00 0.00 4.45 4.74
550.00 288.00 0.00 4.43 4.76
551.00 288.00 0.00 4.42 4.78
552.00 288.00 0.00 4.41 4.80
553.00 288.00 0.00 4.39 4.82
554.00 288.00 0.00 4.38 4.84
555.00 288.00 0.00 4.37 4.86
556.00 288.00 0.00 4.35 4.88
557.00 288.00 0.00 4.34 4.90
558.00 288.00 0.00 4.33 4.92
559.00 288.00 0.00 4.31 4.94
560.00 288.00 0.00 4.30 4.96
561.00 288.00 0.00 4.29 4.98
562.00 288.00 0.00 4.27 5.00
563.00 288.00 0.00 4.26 5.02
564.00 288.00 0.00 4.25 5.03
565.00 288.00 0.00 4.24 5.05
566.00 288.00 0.00 4.22 5.07
567.00 288.00 0.00 4.21 5.09
568.00 288.00 0.00 4.20 5.10
569.00 288.00 0.00 4.19 5.12
570.00 288.00 0.00 4.17 5.14
571.00 288.00 0.00 4.16 5.15
572.00 288.00 0.00 4.15 5.17
573.00 288.00 0.00 4.14 5.19
574.00 288.00 0.00 4.12 5.20
575.00 288.00 0.00 4.11 5.22
576.00 288.00 0.00 4.10 5.24
577.00 288.00 0.00 4.09 5.25
578.00 288.00 0.00 4.08 5.27
579.00 288.00 0.00 4.07 5.28
580.00 288.00 0.00 4.05 5.30
581.00 288.00 0.00 4.04 5.31
582.00 288.00 0.00 4.03 5.33
583.00 288.00 0.00 4.02 5.34
584.00 288.00 0.00 4.01 5.36
585.00 288.00 0.00 4.00 5.37
586.00 288.00 0.00 3.99 5.39
587.00 288.00 0.00 3.98 5.40
588.00 288.00 0.00 3.97 5.41
589.00 288.00 0.00 3.95 5.43
590.00 288.00 0.00 3.94 5.44
591.00 288.00 0.00 3.93 5.45
592.00 288.00 0.00 3.92 5.47
593.00 288.00 0.00 3.91 5.48
594.00 288.00 0.00 3.90 5.49
595.00 288.00 0.00 3.89 5.51
596.00 288.00 0.00 3.88 5.52
597.00 288.00 0.00 3.87 5.53
598.00 288.00 0.00 3.86 5.54
599.00 288.00 0.00 3.85 5.56
600.00 288.00 0.00 3.84 5.57
601.00 288.00 0.00 3.83 5.58
602.00 288.00 0.00 3.82 5.59
603.00 288.00 0.00 3.81 5.60
604.00 288.00 0.00 3.80 5.62
605.00 288.00 0.00 3.79 5.63
606.00 288.00 0.00 3.79 5.64
607.00 288.00 0.00 3.78 5.65
608.00 288.00 0.00 3.77 5.66
609.00 288.00 0.00 3.76 5.67
610.00 288.00 0.00 3.75 5.68
611.00 288.00 0.00 3.74 5.69
612.00 288.00 0.00 3.73 5.70
613.00 288.00 0.00 3.72 5.71
614.00 288.00 0.00 3.71 5.72
615.00 288.00 0.00 3.71 5.73
616.00 288.00 0.00 3.70 5.74
617.00 288.00 0.00 3.69 5.75
618.00 288.00 0.00 3.68 5.76
619.00 288.00 0.00 3.67 5.77
620.00 288.00 0.00 3.66 5.78
621.00 288.00 0.00 3.66 5.79
622.00 288.00 0.00 3.65 5.80
623.00 288.00 0.00 3.64 5.81
624.00 288.00 0.00 3.63 5.82
625.00 288.00 0.00 3.62 5.82
626.00 288.00 0.00 3.62 5.83
627.00 288.00 0.00 3.61 5.84
628.00 288.00 0.00 3.60 5.85
629.00 288.00 0.00 3.59 5.86
630.00 288.00 0.00 3.59 5.87
631.00 288.00 0.00 3.58 5.87
632.00 288.00 0.00 3.57 5.88
633.00 288.00 0.00 3.57 5.89
634.00 288.00 0.00 3.56 5.90
635.00 288.00 0.00 3.55 5.90
636.00 288.00 0.00 3.55 5.91
637.00 288.00 0.00 3.54 5.92
638.00 288.00 0.00 3.53 5.93
639.00 288.00 0.00 3.53 5.93
640.00 288.00 0.00 3.52 5.94
641.00 288.00 0.00 3.51 5.95
642.00 288.00 0.00 3.51 5.95
643.00 288.00 0.00 3.50 5.96
644.00 288.00 0.00 3.49 5.97
645.00 288.00 0.00 3.49 5.97
646.00 288.00 0.00 3.48 5.98
647.00 288.00 0.00 3.48 5.99
648.00 288.00 0.00 3.47 5.99
649.00 288.00 0.00 3.46 6.00
650.00 288.00 0.00 3.46 6.00
651.00 288.00 0.00 3.45 6.01
652.00 288.00 0.00 3.45 6.02
653.00 288.00 0.00 3.44 6.02
654.00 288.00 0.00 3.44 6.03
655.00 288.00 0.00 3.43 6.03
656.00 288.00 0.00 3.43 6.04
657.00 288.00 0.00 3.42 6.04
658.00 288.00 0.00 3.42 6.05
659.00 288.00 0.00 3.41 6.05
660.00 288.00 0.00 3.41 6.06
661.00 288.00 0.00 3.40 6.06
662.00 288.00 0.00 3.40 6.07
663.00 288.00 0.00 3.39 6.07
664.00 288.00 0.00 3.39 6.08
665.00 288.00 0.00 3.38 6.08
666.00 288.00 0.00 3.38 6.08
667.00 288.00 0.00 3.38 6.09
668.00 288.00 0.00 3.37 6.09
669.00 288.00 0.00 3.37 6.10
670.00 288.00 0.00 3.36 6.10
671.00 288.00 0.00 3.36 6.10
672.00 288.00 0.00 3.36 6.11
673.00 288.00 0.00 3.35 6.11
674.00 288.00 0.00 3.35 6.11
675.00 288.00 0.00 3.35 6.12
676.00 288.00 0.00 3.34 6.12
677.00 288.00 0.00 3.34 6.12
678.00 288.00 0.00 3.34 6.13
679.00 288.00 0.00 3.33 6.13
680.00 288.00 0.00 3.33 6.13
681.00 288.00 0.00 3.33 6.14
682.00 288.00 0.00 3.32 6.14
683.00 288.00 0.00 3.32 6.14
684.00 288.00 0.00 3.32 6.15
685.00 288.00 0.00 3.32 6.15
686.00 288.00 0.00 3.31 6.15
687.00 288.00 0.00 3.31 6.15
688.00 288.00 0.00 3.31 6.16
689.00 288.00 0.00 3.31 6.16
690.00 288.00 0.00 3.30 6.16
691.00 288.00 0.00 3.30 6.16
692.00 288.00 0.00 3.30 6.16
693.00 288.00 0.00 3.30 6.17
694.00 288.00 0.00 3.29 6.17
695.00 288.00 0.00 3.29 6.17
696.00 288.00 0.00 3.29 6.17
697.00 288.00 0.00 3.29 6.17
698.00 288.00 0.00 3.29 6.17
699.00 288.00 0.00 3.29 6.18
700.00 288.00 0.00 3.28 6.18
701.00 288.00 0.00 3.28 6.18
702.00 288.00 0.00 3.28 6.18
703.00 288.00 0.00 3.28 6.18
704.00 288.00 0.00 3.28 6.18
705.00 288.00 0.00 3.28 6.18
706.00 288.00 0.00 3.28 6.18
707.00 288.00 0.00 3.28 6.18
708.00 288.00 0.00 3.28 6.18
709.00 288.00 0.00 3.28 6.19
710.00 288.00 0.00 3.27 6.19
711.00 288.00 0.00 3.27 6.19
712.00 288.00 0.00 3.27 6.19
713.00 288.00 0.00 3.27 6.19
714.00 288.00 0.00 3.27 6.19
715.00 288.00 0.00 3.27 6.19
716.00 288.00 0.00 3.27 6.19
717.00 288.00 0.00 3.27 6.19
718.00 288.00 0.00 3.27 6.19
719.00 288.00 0.00 3.27 6.19
720.00 288.00 0.00 3.27 6.19
721.00 288.00 0.00 3.27 6.19
722.00 288.00 0.00 3.27 6.19
723.00 288.00 0.00 3.27 6.19
724.00 288.00 0.00 3.27 6.19
725.00 288.00 0.00 3.27 6.19
726.00 288.00 0.00 3.27 6.19
727.00 288.00 0.00 3.27 6.19
728.00 288.00 0.00 3.27 6.19
729.00 288.00 0.00 3.27 6.19
730.00 288.00 0.00 3.27 6.19
731.00 288.00 0.00 3.27 6.19
732.00 288.00 0.00 3.27 6.19
733.00 288.00 0.00 3.27 6.19
734.00 288.00 0.00 3.27 6.19
735.00 288.00 0.00 3.27 6.19
736.00 288.00 0.00 3.27 6.19
737.00 288.00 0.00 3.27 6.19
738.00 288.00 0.00 3.27 6.19
739.00 288.00 0.00 3.27 6.19
740.00 288.00 0.00 3.27 6.19
741.00 288.00 0.00 3.27 6.19
742.00 288.00 0.00 3.27 6.19
743.00 288.00 0.00 3.27 6.19
744.00 288.00 0.00 3.27 6.19
745.00 288.00 0.00 3.27 6.19
746.00 288.00 0.00 3.27 6.19
747.00 288.00 0.00 3.27 6.19
748.00 288.00 0.00 3.27 6.19
749.00 288.00 0.00 3.27 6.19
750.00 288.00 0.00 3.27 6.19
751.00 288.00 0.00 3.27 6.19
752.00 288.00 0.00 3.27 6.19
753.00 288.00 0.00 3.27 6.19
754.00 288.00 0.00 3.27 6.19
755.00 288.00 0.00 3.27 6.19
756.00 288.00 0.00 3.27 6.19
757.00 288.00 0.00 3.27 6.19
758.00 288.00 0.00 3.27 6.19
759.00 288.00 0.00 3.27 6.19
760.00 288.00 0.00 3.27 6.19
761.00 288.00 0.00 3.27 6.19
762.00 288.00 0.00 3.27 6.19
763.00 288.00 0.00 3.27 6.19
764.00 288.00 0.00 3.27 6.19
765.00 288.00 0.00 3.27 6.19
766.00 288.00 0.00 3.27 6.19
767.00 288.00 0.00 3.27 6.19
768.00 288.00 0.00 3.27 6.19
769.00 288.00 0.00 3.27 6.19
770.00 288.00 0.00 3.27 6.19
771.00 288.00 0.00 3.27 6.19
772.00 288.00 0.00 3.27 6.19
773.00 288.00 0.00 3.27 6.19
774.00 288.00 0.00 3.27 6.19
775.00 288.00 0.00 3.27 6.19
776.00 288.00 0.00 3.27 6.19
777.00 288.00 0.00 3.27 6.19
778.00 288.00 0.00 3.27 6.19
779.00 288.00 0.00 3.27 6.19
780.00 288.00 0.00 3.27 6.19
781.00 288.00 0.00 3.27 6.19
782.00 288.00 0.00 3.27 6.19
783.00 288.00 0.00 3.27 6.19
784.00 288.00 0.00 3.27 6.19
785.00 288.00 0.00 3.27 6.19
786.00 288.00 0.00 3.27 6.19
787.00 288.00 0.00 3.27 6.19
788.00 288.00 0.00 3.27 6.19
789.00 288.00 0.00 3.27 6.19
790.00 288.00 0.00 3.27 6.19
791.00 288.00 0.00 3.27 6.19
792.00 288.00 0.00 3.27 6.19
793.00 288.00 0.00 3.27 6.19
794.00 288.00 0.00 3.27 6.19
795.00 288.00 0.00 3.27 6.19
796.00 288.00 0.00 3.27 6.19
797.00 288.00 0.00 3.27 6.19
798.00 288.00 0.00 3.27 6.19
799.00 288.00 0.00 3.27 6.19
800.00 288.00 0.00 3.27 6.19
801.00 288.00 0.00 3.27 6.19
802.00 288.00 0.00 3.27 6.19
803.00 288.00 0.00 3.27 6.19
804.00 288.00 0.00 3.27 6.19
805.00 288.00 0.00 3.27 6.19
806.00 288.00 0.00 3.27 6.19
807.00 288.00 0.00 3.27 6.19
808.00 288.00 0.00 3.27 6.19
809.00 288.00 0.00 3.27 6.19
810.00 288.00 0.00 3.27 6.19
811.00 288.00 0.00 3.27 6.19
812.00 288.00 0.00 3.27 6.19
813.00 288.00 0.00 3.27 6.19
814.00 288.00 0.00 3.27 6.19
815.00 288.00 0.00 3.27 6.19
816.00 288.00 0.00 3.27 6.19
817.00 288.00 0.00 3.27 6.19
818.00 288.00 0.00 3.27 6.19
819.00 288.00 0.00 3.27 6.19
820.00 288.00 0.00 3.27 6.19
821.00 288.00 0.00 3.27 6.19
822.00 288.00 0.00 3.27 6.19
823.00 288.00 0.00 3.27 6.19
824.00 288.00 0.00 3.27 6.19
825.00 288.00 0.00 3.27 6.19
826.00 288.00 0.00 3.27 6.19
827.00 288.00 0.00 3.27 6.19
828.00 288.00 0.00 3.27 6.19
829.00 288.00 0.00 3.27 6.19
830.00 288.00 0.00 3.27 6.19
831.00 288.00 0.00 3.27 6.19
