1000.00 288.00 00.00
0.00 288.00 0.00 0.65 0.65
1.00 288.00 0.00 0.65 0.65
2.00 288.00 0.00 0.65 0.65
3.00 288.00 0.00 0.65 0.65
4.00 288.00 0.00 0.65 0.65
5.00 288.00 0.00 0.65 0.65
6.00 288.00 0.00 0.65 0.65
7.00 288.00 0.00 0.65 0.65
8.00 288.00 0.00 0.65 0.65
9.00 288.00 0.00 0.65 0.65
10.00 288.00 0.00 0.65 0.65
11.00 288.00 0.00 0.65 0.65
12.00 288.00 0.00 0.65 0.65
13.00 288.00 0.00 0.65 0.65
14.00 288.00 0.00 0.65 0.65
15.00 288.00 0.00 0.65 0.65
16.00 288.00 0.00 0.65 0.65
17.00 288.00 0.00 0.65 0.65
18.00 288.00 0.00 0.65 0.65
19.00 288.00 0.00 0.65 0.65
20.00 288.00 0.00 0.65 0.65
21.00 288.00 0.00 0.65 0.65
22.00 288.00 0.00 0.65 0.65
23.00 288.00 0.00 0.65 0.65
24.00 288.00 0.00 0.65 0.65
25.00 288.00 0.00 0.65 0.65
26.00 288.00 0.00 0.65 0.65
27.00 288.00 0.00 0.65 0.65
28.00 288.00 0.00 0.65 0.65
29.00 288.00 0.00 0.65 0.65
30.00 288.00 0.00 0.65 0.65
31.00 288.00 0.00 0.65 0.65
32.00 288.00 0.00 0.65 0.65
33.00 288.00 0.00 0.65 0.65
34.00 288.00 0.00 0.65 0.65
35.00 288.00 0.00 0.65 0.65
36.00 288.00 0.00 0.65 0.65
37.00 288.00 0.00 0.65 0.65
38.00 288.00 0.00 0.65 0.65
39.00 288.00 0.00 0.65 0.65
40.00 288.00 0.00 0.65 0.65
41.00 288.00 0.00 0.65 0.65
42.00 288.00 0.00 0.65 0.65
43.00 288.00 0.00 0.65 0.65
44.00 288.00 0.00 0.65 0.65
45.00 288.00 0.00 0.65 0.65
46.00 288.00 0.00 0.65 0.65
47.00 288.00 0.00 0.65 0.65
48.00 288.00 0.00 0.65 0.65
49.00 288.00 0.00 0.65 0.65
50.00 288.00 0.00 0.65 0.65
51.00 288.00 0.00 0.65 0.65
52.00 288.00 0.00 0.65 0.65
53.00 288.00 0.00 0.65 0.65
54.00 288.00 0.00 0.65 0.65
55.00 288.00 0.00 0.65 0.65
56.00 288.00 0.00 0.65 0.65
57.00 288.00 0.00 0.65 0.65
58.00 288.00 0.00 0.65 0.65
59.00 288.00 0.00 0.65 0.65
60.00 288.00 0.00 0.65 0.65
61.00 288.00 0.00 0.65 0.65
62.00 288.00 0.00 0.65 0.65
63.00 288.00 0.00 0.65 0.65
64.00 288.00 0.00 0.65 0.65
65.00 288.00 0.00 0.65 0.65
66.00 288.00 0.00 0.65 0.65
67.00 288.00 0.00 0.65 0.65
68.00 288.00 0.00 0.65 0.65
69.00 288.00 0.00 0.65 0.65
70.00 288.00 0.00 0.65 0.65
71.00 288.00 0.00 0.65 0.65
72.00 288.00 0.00 0.65 0.65
73.00 288.00 0.00 0.65 0.65
74.00 288.00 0.00 0.65 0.65
75.00 288.00 0.00 0.65 0.65
76.00 288.00 0.00 0.65 0.65
77.00 288.00 0.00 0.65 0.65
78.00 288.00 0.00 0.65 0.65
79.00 288.00 0.00 0.65 0.65
80.00 288.00 0.00 0.65 0.65
81.00 288.00 0.00 0.65 0.65
82.00 288.00 0.00 0.65 0.65
83.00 288.00 0.00 0.65 0.65
84.00 288.00 0.00 0.65 0.65
85.00 288.00 0.00 0.65 0.65
86.00 288.00 0.00 0.65 0.65
87.00 288.00 0.00 0.66 0.64
88.00 288.00 0.00 0.66 0.64
89.00 288.00 0.00 0.66 0.64
90.00 288.00 0.00 0.66 0.64
91.00 288.00 0.00 0.66 0.64
92.00 288.00 0.00 0.67 0.64
93.00 288.00 0.00 0.67 0.64
94.00 288.00 0.00 0.67 0.64
95.00 288.00 0.00 0.68 0.64
96.00 288.00 0.00 0.68 0.64
97.00 288.00 0.00 0.68 0.64
98.00 288.00 0.00 0.69 0.64
99.00 288.00 0.00 0.69 0.64
100.00 288.00 0.00 0.69 0.64
101.00 288.00 0.00 0.70 0.64
102.00 288.00 0.00 0.70 0.64
103.00 288.00 0.00 0.70 0.64
104.00 288.00 0.00 0.71 0.64
105.00 288.00 0.00 0.71 0.64
106.00 288.00 0.00 0.72 0.64
107.00 288.00 0.00 0.72 0.64
108.00 288.00 0.00 0.73 0.64
109.00 288.00 0.00 0.73 0.64
110.00 288.00 0.00 0.74 0.64
111.00 288.00 0.00 0.75 0.64
112.00 288.00 0.00 0.75 0.64
113.00 288.00 0.00 0.76 0.63
114.00 288.00 0.00 0.76 0.63
115.00 288.00 0.00 0.77 0.63
116.00 288.00 0.00 0.78 0.63
117.00 288.00 0.00 0.78 0.63
118.00 288.00 0.00 0.79 0.63
119.00 288.00 0.00 0.80 0.63
120.00 288.00 0.00 0.80 0.63
121.00 288.00 0.00 0.81 0.63
122.00 288.00 0.00 0.82 0.63
123.00 288.00 0.00 0.83 0.63
124.00 288.00 0.00 0.83 0.63
125.00 288.00 0.00 0.84 0.63
126.00 288.00 0.00 0.85 0.62
127.00 288.00 0.00 0.86 0.62
128.00 288.00 0.00 0.87 0.62
129.00 288.00 0.00 0.87 0.62
130.00 288.00 0.00 0.88 0.62
131.00 288.00 0.00 0.89 0.62
132.00 288.00 0.00 0.90 0.62
133.00 288.00 0.00 0.91 0.62
134.00 288.00 0.00 0.92 0.62
135.00 288.00 0.00 0.93 0.62
136.00 288.00 0.00 0.94 0.62
137.00 288.00 0.00 0.95 0.61
138.00 288.00 0.00 0.96 0.61
139.00 288.00 0.00 0.97 0.61
140.00 288.00 0.00 0.98 0.61
141.00 288.00 0.00 0.99 0.61
142.00 288.00 0.00 1.00 0.61
143.00 288.00 0.00 1.01 0.61
144.00 288.00 0.00 1.02 0.61
145.00 288.00 0.00 1.04 0.61
146.00 288.00 0.00 1.05 0.60
147.00 288.00 0.00 1.06 0.60
148.00 288.00 0.00 1.07 0.60
149.00 288.00 0.00 1.08 0.60
150.00 288.00 0.00 1.09 0.60
151.00 288.00 0.00 1.11 0.60
152.00 288.00 0.00 1.12 0.60
153.00 288.00 0.00 1.13 0.60
154.00 288.00 0.00 1.14 0.59
155.00 288.00 0.00 1.16 0.59
156.00 288.00 0.00 1.17 0.59
157.00 288.00 0.00 1.18 0.59
158.00 288.00 0.00 1.20 0.59
159.00 288.00 0.00 1.21 0.59
160.00 288.00 0.00 1.22 0.59
161.00 288.00 0.00 1.24 0.59
162.00 288.00 0.00 1.25 0.58
163.00 288.00 0.00 1.27 0.58
164.00 288.00 0.00 1.28 0.58
165.00 288.00 0.00 1.30 0.58
166.00 288.00 0.00 1.31 0.58
167.00 288.00 0.00 1.33 0.58
168.00 288.00 0.00 1.34 0.57
169.00 288.00 0.00 1.36 0.57
170.00 288.00 0.00 1.37 0.57
171.00 288.00 0.00 1.39 0.57
172.00 288.00 0.00 1.40 0.57
173.00 288.00 0.00 1.42 0.57
174.00 288.00 0.00 1.44 0.57
175.00 288.00 0.00 1.45 0.56
176.00 288.00 0.00 1.47 0.56
177.00 288.00 0.00 1.48 0.56
178.00 288.00 0.00 1.50 0.56
179.00 288.00 0.00 1.52 0.56
180.00 288.00 0.00 1.54 0.55
181.00 288.00 0.00 1.55 0.55
182.00 288.00 0.00 1.57 0.55
183.00 288.00 0.00 1.59 0.55
184.00 288.00 0.00 1.61 0.55
185.00 288.00 0.00 1.62 0.55
186.00 288.00 0.00 1.64 0.54
187.00 288.00 0.00 1.66 0.54
188.00 288.00 0.00 1.68 0.54
189.00 288.00 0.00 1.70 0.54
190.00 288.00 0.00 1.72 0.54
191.00 288.00 0.00 1.73 0.53
192.00 288.00 0.00 1.75 0.53
193.00 288.00 0.00 1.77 0.53
194.00 288.00 0.00 1.79 0.53
195.00 288.00 0.00 1.81 0.53
196.00 288.00 0.00 1.83 0.52
197.00 288.00 0.00 1.85 0.52
198.00 288.00 0.00 1.87 0.52
199.00 288.00 0.00 1.89 0.52
200.00 288.00 0.00 1.91 0.52
201.00 288.00 0.00 1.93 0.51
202.00 288.00 0.00 1.95 0.51
203.00 288.00 0.00 1.98 0.51
204.00 288.00 0.00 2.00 0.51
205.00 288.00 0.00 2.02 0.51
206.00 288.00 0.00 2.04 0.50
207.00 288.00 0.00 2.06 0.50
208.00 288.00 0.00 2.08 0.50
209.00 288.00 0.00 2.10 0.50
210.00 288.00 0.00 2.13 0.49
211.00 288.00 0.00 2.15 0.49
212.00 288.00 0.00 2.17 0.49
213.00 288.00 0.00 2.19 0.49
214.00 288.00 0.00 2.22 0.49
215.00 288.00 0.00 2.24 0.48
216.00 288.00 0.00 2.26 0.48
217.00 288.00 0.00 2.29 0.48
218.00 288.00 0.00 2.31 0.48
219.00 288.00 0.00 2.33 0.47
220.00 288.00 0.00 2.36 0.47
221.00 288.00 0.00 2.38 0.47
222.00 288.00 0.00 2.41 0.47
223.00 288.00 0.00 2.43 0.46
224.00 288.00 0.00 2.45 0.46
225.00 288.00 0.00 2.48 0.46
226.00 288.00 0.00 2.50 0.46
227.00 288.00 0.00 2.53 0.45
228.00 288.00 0.00 2.55 0.45
229.00 288.00 0.00 2.58 0.45
230.00 288.00 0.00 2.60 0.45
231.00 288.00 0.00 2.63 0.44
232.00 288.00 0.00 2.66 0.44
233.00 288.00 0.00 2.68 0.44
234.00 288.00 0.00 2.71 0.44
235.00 288.00 0.00 2.73 0.43
236.00 288.00 0.00 2.76 0.43
237.00 288.00 0.00 2.79 0.43
238.00 288.00 0.00 2.81 0.42
239.00 288.00 0.00 2.84 0.42
240.00 288.00 0.00 2.87 0.42
241.00 288.00 0.00 2.90 0.42
242.00 288.00 0.00 2.92 0.41
243.00 288.00 0.00 2.95 0.41
244.00 288.00 0.00 2.98 0.41
245.00 288.00 0.00 3.01 0.40
246.00 288.00 0.00 3.03 0.40
247.00 288.00 0.00 3.06 0.40
248.00 288.00 0.00 3.09 0.40
249.00 288.00 0.00 3.12 0.39
250.00 288.00 0.00 3.15 0.39
251.00 288.00 0.00 3.18 0.39
252.00 288.00 0.00 3.21 0.38
253.00 288.00 0.00 3.24 0.38
254.00 288.00 0.00 3.27 0.38
255.00 288.00 0.00 3.30 0.38
256.00 288.00 0.00 3.33 0.37
257.00 288.00 0.00 3.36 0.37
258.00 288.00 0.00 3.39 0.37
259.00 288.00 0.00 3.42 0.36
260.00 288.00 0.00 3.45 0.36
261.00 288.00 0.00 3.48 0.36
262.00 288.00 0.00 3.51 0.35
263.00 288.00 0.00 3.54 0.35
264.00 288.00 0.00 3.56 0.35
265.00 288.00 0.00 3.59 0.34
266.00 288.00 0.00 3.63 0.34
267.00 288.00 0.00 3.66 0.34
268.00 288.00 0.00 3.69 0.34
269.00 288.00 0.00 3.72 0.33
270.00 288.00 0.00 3.75 0.33
271.00 288.00 0.00 3.78 0.33
272.00 288.00 0.00 3.81 0.32
273.00 288.00 0.00 3.83 0.32
274.00 288.00 0.00 3.87 0.32
275.00 288.00 0.00 3.90 0.31
276.00 288.00 0.00 3.92 0.31
277.00 288.00 0.00 3.96 0.31
278.00 288.00 0.00 3.99 0.31
279.00 288.00 0.00 4.02 0.30
280.00 288.00 0.00 4.04 0.30
281.00 288.00 0.00 4.08 0.30
282.00 288.00 0.00 4.11 0.29
283.00 288.00 0.00 4.14 0.29
284.00 288.00 0.00 4.17 0.29
285.00 288.00 0.00 4.20 0.28
286.00 288.00 0.00 4.23 0.28
287.00 288.00 0.00 4.26 0.28
288.00 288.00 0.00 4.29 0.27
289.00 288.00 0.00 4.32 0.27
290.00 288.00 0.00 4.35 0.27
291.00 288.00 0.00 4.38 0.27
292.00 288.00 0.00 4.41 0.26
293.00 288.00 0.00 4.44 0.26
294.00 288.00 0.00 4.47 0.26
295.00 288.00 0.00 4.50 0.25
296.00 288.00 0.00 4.53 0.25
297.00 288.00 0.00 4.55 0.25
298.00 288.00 0.00 4.59 0.24
299.00 288.00 0.00 4.62 0.24
300.00 288.00 0.00 4.65 0.24
301.00 288.00 0.00 4.68 0.24
302.00 288.00 0.00 4.71 0.23
303.00 288.00 0.00 4.74 0.23
304.00 288.00 0.00 4.77 0.23
305.00 288.00 0.00 4.80 0.22
306.00 288.00 0.00 4.83 0.22
307.00 288.00 0.00 4.86 0.22
308.00 288.00 0.00 4.89 0.21
309.00 288.00 0.00 4.92 0.21
310.00 288.00 0.00 4.95 0.21
311.00 288.00 0.00 4.98 0.20
312.00 288.00 0.00 5.01 0.20
313.00 288.00 0.00 5.04 0.20
314.00 288.00 0.00 5.07 0.20
315.00 288.00 0.00 5.10 0.19
316.00 288.00 0.00 5.12 0.19
317.00 288.00 0.00 5.16 0.19
318.00 288.00 0.00 5.19 0.18
319.00 288.00 0.00 5.22 0.18
320.00 288.00 0.00 5.25 0.18
321.00 288.00 0.00 5.28 0.17
322.00 288.00 0.00 5.31 0.17
323.00 288.00 0.00 5.34 0.17
324.00 288.00 0.00 5.37 0.16
325.00 288.00 0.00 5.40 0.16
326.00 288.00 0.00 5.43 0.16
327.00 288.00 0.00 5.46 0.16
328.00 288.00 0.00 5.49 0.15
329.00 288.00 0.00 5.52 0.15
330.00 288.00 0.00 5.55 0.15
331.00 288.00 0.00 5.58 0.14
332.00 288.00 0.00 5.61 0.14
333.00 288.00 0.00 5.64 0.14
334.00 288.00 0.00 5.67 0.13
335.00 288.00 0.00 5.70 0.13
336.00 288.00 0.00 5.73 0.13
337.00 288.00 0.00 5.76 0.13
338.00 288.00 0.00 5.79 0.12
339.00 288.00 0.00 5.82 0.12
340.00 288.00 0.00 5.85 0.12
341.00 288.00 0.00 5.88 0.11
342.00 288.00 0.00 5.91 0.11
343.00 288.00 0.00 5.94 0.11
344.00 288.00 0.00 5.97 0.10
345.00 288.00 0.00 6.00 0.10
346.00 288.00 0.00 6.03 0.10
347.00 288.00 0.00 6.06 0.09
348.00 288.00 0.00 6.09 0.09
349.00 288.00 0.00 6.12 0.09
350.00 288.00 0.00 6.15 0.09
351.00 288.00 0.00 6.18 0.08
352.00 288.00 0.00 6.21 0.08
353.00 288.00 0.00 6.24 0.08
354.00 288.00 0.00 6.27 0.07
355.00 288.00 0.00 6.30 0.07
356.00 288.00 0.00 6.33 0.07
357.00 288.00 0.00 6.36 0.06
358.00 288.00 0.00 6.39 0.06
359.00 288.00 0.00 6.42 0.06
360.00 288.00 0.00 6.45 0.05
361.00 288.00 0.00 6.48 0.05
362.00 288.00 0.00 6.51 0.05
363.00 288.00 0.00 6.54 0.05
364.00 288.00 0.00 6.57 0.04
365.00 288.00 0.00 6.60 0.04
366.00 288.00 0.00 6.63 0.04
367.00 288.00 0.00 6.66 0.03
368.00 288.00 0.00 6.69 0.03
369.00 288.00 0.00 6.72 0.03
370.00 288.00 0.00 6.75 0.02
371.00 288.00 0.00 6.78 0.02
372.00 288.00 0.00 6.81 0.02
373.00 288.00 0.00 6.84 0.02
374.00 288.00 0.00 6.87 0.01
375.00 288.00 0.00 6.90 0.01
376.00 288.00 0.00 6.93 0.01
377.00 288.00 0.00 6.96 0.00
378.00 288.00 0.00 6.99 -0.00
379.00 288.00 0.00 7.02 -0.00
380.00 288.00 0.00 7.05 -0.01
381.00 288.00 0.00 7.08 -0.01
382.00 288.00 0.00 7.11 -0.01
383.00 288.00 0.00 7.14 -0.02
384.00 288.00 0.00 7.17 -0.02
385.00 288.00 0.00 7.20 -0.02
386.00 288.00 0.00 7.23 -0.02
387.00 288.00 0.00 7.26 -0.03
388.00 288.00 0.00 7.29 -0.03
389.00 288.00 0.00 7.32 -0.03
390.00 288.00 0.00 7.35 -0.04
391.00 288.00 0.00 7.38 -0.04
392.00 288.00 0.00 7.40 -0.04
393.00 288.00 0.00 7.44 -0.05
394.00 288.00 0.00 7.47 -0.05
395.00 288.00 0.00 7.50 -0.05
396.00 288.00 0.00 7.52 -0.05
397.00 288.00 0.00 7.56 -0.06
398.00 288.00 0.00 7.59 -0.06
399.00 288.00 0.00 7.62 -0.06
400.00 288.00 0.00 7.65 -0.07
401.00 288.00 0.00 7.68 -0.07
402.00 288.00 0.00 7.71 -0.07
403.00 288.00 0.00 7.74 -0.08
404.00 288.00 0.00 7.76 -0.08
405.00 288.00 0.00 7.80 -0.08
406.00 288.00 0.00 7.83 -0.09
407.00 288.00 0.00 7.86 -0.09
408.00 288.00 0.00 7.89 -0.09
409.00 288.00 0.00 7.92 -0.09
410.00 288.00 0.00 7.95 -0.10
411.00 288.00 0.00 7.98 -0.10
412.00 288.00 0.00 8.01 -0.10
413.00 288.00 0.00 8.04 -0.11
414.00 288.00 0.00 8.07 -0.11
415.00 288.00 0.00 8.10 -0.11
416.00 288.00 0.00 8.12 -0.12
417.00 288.00 0.00 8.16 -0.12
418.00 288.00 0.00 8.19 -0.12
419.00 288.00 0.00 8.22 -0.13
420.00 288.00 0.00 8.25 -0.13
421.00 288.00 0.00 8.28 -0.13
422.00 288.00 0.00 8.31 -0.13
423.00 288.00 0.00 8.34 -0.14
424.00 288.00 0.00 8.37 -0.14
425.00 288.00 0.00 8.40 -0.14
426.00 288.00 0.00 8.43 -0.15
427.00 288.00 0.00 8.46 -0.15
428.00 288.00 0.00 8.49 -0.15
429.00 288.00 0.00 8.52 -0.16
430.00 288.00 0.00 8.55 -0.16
431.00 288.00 0.00 8.58 -0.16
432.00 288.00 0.00 8.61 -0.16
433.00 288.00 0.00 8.63 -0.17
434.00 288.00 0.00 8.67 -0.17
435.00 288.00 0.00 8.70 -0.17
436.00 288.00 0.00 8.73 -0.18
437.00 288.00 0.00 8.76 -0.18
438.00 288.00 0.00 8.79 -0.18
439.00 288.00 0.00 8.82 -0.19
440.00 288.00 0.00 8.85 -0.19
441.00 288.00 0.00 8.88 -0.19
442.00 288.00 0.00 8.91 -0.20
443.00 288.00 0.00 8.94 -0.20
444.00 288.00 0.00 8.97 -0.20
445.00 288.00 0.00 9.00 -0.20
446.00 288.00 0.00 9.03 -0.21
447.00 288.00 0.00 9.06 -0.21
448.00 288.00 0.00 9.09 -0.21
449.00 288.00 0.00 9.12 -0.22
450.00 288.00 0.00 9.15 -0.22
451.00 288.00 0.00 9.18 -0.22
452.00 288.00 0.00 9.21 -0.23
453.00 288.00 0.00 9.24 -0.23
454.00 288.00 0.00 9.27 -0.23
455.00 288.00 0.00 9.30 -0.24
456.00 288.00 0.00 9.33 -0.24
457.00 288.00 0.00 9.36 -0.24
458.00 288.00 0.00 9.39 -0.24
459.00 288.00 0.00 9.42 -0.25
460.00 288.00 0.00 9.45 -0.25
461.00 288.00 0.00 9.48 -0.25
462.00 288.00 0.00 9.51 -0.26
463.00 288.00 0.00 9.54 -0.26
464.00 288.00 0.00 9.56 -0.26
465.00 288.00 0.00 9.60 -0.27
466.00 288.00 0.00 9.63 -0.27
467.00 288.00 0.00 9.66 -0.27
468.00 288.00 0.00 9.69 -0.27
469.00 288.00 0.00 9.72 -0.28
470.00 288.00 0.00 9.75 -0.28
471.00 288.00 0.00 9.78 -0.28
472.00 288.00 0.00 9.81 -0.29
473.00 288.00 0.00 9.84 -0.29
474.00 288.00 0.00 9.87 -0.29
475.00 288.00 0.00 9.90 -0.30
476.00 288.00 0.00 9.93 -0.30
477.00 288.00 0.00 9.96 -0.30
478.00 288.00 0.00 9.99 -0.31
479.00 288.00 0.00 10.02 -0.31
480.00 288.00 0.00 10.05 -0.31
481.00 288.00 0.00 10.08 -0.31
482.00 288.00 0.00 10.11 -0.32
483.00 288.00 0.00 10.14 -0.32
484.00 288.00 0.00 10.17 -0.32
485.00 288.00 0.00 10.20 -0.33
486.00 288.00 0.00 10.23 -0.33
487.00 288.00 0.00 10.26 -0.33
488.00 288.00 0.00 10.29 -0.34
489.00 288.00 0.00 10.32 -0.34
490.00 288.00 0.00 10.35 -0.34
491.00 288.00 0.00 10.38 -0.34
492.00 288.00 0.00 10.41 -0.35
493.00 288.00 0.00 10.44 -0.35
494.00 288.00 0.00 10.47 -0.35
495.00 288.00 0.00 10.50 -0.36
496.00 288.00 0.00 10.53 -0.36
497.00 288.00 0.00 10.56 -0.36
498.00 288.00 0.00 10.59 -0.37
499.00 288.00 0.00 10.62 -0.37
500.00 288.00 0.00 10.65 -0.37
501.00 288.00 0.00 10.67 -0.38
502.00 288.00 0.00 10.70 -0.38
503.00 288.00 0.00 10.73 -0.38
504.00 288.00 0.00 10.76 -0.38
505.00 288.00 0.00 10.79 -0.39
506.00 288.00 0.00 10.82 -0.39
507.00 288.00 0.00 10.85 -0.39
508.00 288.00 0.00 10.88 -0.40
509.00 288.00 0.00 10.91 -0.40
510.00 288.00 0.00 10.94 -0.40
511.00 288.00 0.00 10.97 -0.40
512.00 288.00 0.00 10.99 -0.41
513.00 288.00 0.00 11.02 -0.41
514.00 288.00 0.00 11.05 -0.41
515.00 288.00 0.00 11.08 -0.42
516.00 288.00 0.00 11.10 -0.42
517.00 288.00 0.00 11.13 -0.42
518.00 288.00 0.00 11.16 -0.42
519.00 288.00 0.00 11.19 -0.43
520.00 288.00 0.00 11.21 -0.43
521.00 288.00 0.00 11.24 -0.43
522.00 288.00 0.00 11.27 -0.44
523.00 288.00 0.00 11.29 -0.44
524.00 288.00 0.00 11.32 -0.44
525.00 288.00 0.00 11.34 -0.44
526.00 288.00 0.00 11.37 -0.45
527.00 288.00 0.00 11.40 -0.45
528.00 288.00 0.00 11.42 -0.45
529.00 288.00 0.00 11.45 -0.45
530.00 288.00 0.00 11.47 -0.46
531.00 288.00 0.00 11.50 -0.46
532.00 288.00 0.00 11.52 -0.46
533.00 288.00 0.00 11.55 -0.46
534.00 288.00 0.00 11.57 -0.47
535.00 288.00 0.00 11.59 -0.47
536.00 288.00 0.00 11.62 -0.47
537.00 288.00 0.00 11.64 -0.47
538.00 288.00 0.00 11.67 -0.48
539.00 288.00 0.00 11.69 -0.48
540.00 288.00 0.00 11.71 -0.48
541.00 288.00 0.00 11.74 -0.48
542.00 288.00 0.00 11.76 -0.49
543.00 288.00 0.00 11.78 -0.49
544.00 288.00 0.00 11.81 -0.49
545.00 288.00 0.00 11.83 -0.49
546.00 288.00 0.00 11.85 -0.49
547.00 288.00 0.00 11.87 -0.50
548.00 288.00 0.00 11.90 -0.50
549.00 288.00 0.00 11.92 -0.50
550.00 288.00 0.00 11.94 -0.50
551.00 288.00 0.00 11.96 -0.51
552.00 288.00 0.00 11.98 -0.51
553.00 288.00 0.00 12.00 -0.51
554.00 288.00 0.00 12.02 -0.51
555.00 288.00 0.00 12.05 -0.51
556.00 288.00 0.00 12.07 -0.52
557.00 288.00 0.00 12.09 -0.52
558.00 288.00 0.00 12.11 -0.52
559.00 288.00 0.00 12.13 -0.52
560.00 288.00 0.00 12.15 -0.52
561.00 288.00 0.00 12.17 -0.53
562.00 288.00 0.00 12.19 -0.53
563.00 288.00 0.00 12.21 -0.53
564.00 288.00 0.00 12.23 -0.53
565.00 288.00 0.00 12.25 -0.53
566.00 288.00 0.00 12.27 -0.54
567.00 288.00 0.00 12.28 -0.54
568.00 288.00 0.00 12.30 -0.54
569.00 288.00 0.00 12.32 -0.54
570.00 288.00 0.00 12.34 -0.54
571.00 288.00 0.00 12.36 -0.55
572.00 288.00 0.00 12.38 -0.55
573.00 288.00 0.00 12.39 -0.55
574.00 288.00 0.00 12.41 -0.55
575.00 288.00 0.00 12.43 -0.55
576.00 288.00 0.00 12.45 -0.55
577.00 288.00 0.00 12.46 -0.56
578.00 288.00 0.00 12.48 -0.56
579.00 288.00 0.00 12.50 -0.56
580.00 288.00 0.00 12.52 -0.56
581.00 288.00 0.00 12.53 -0.56
582.00 288.00 0.00 12.55 -0.57
583.00 288.00 0.00 12.56 -0.57
584.00 288.00 0.00 12.58 -0.57
585.00 288.00 0.00 12.60 -0.57
586.00 288.00 0.00 12.61 -0.57
587.00 288.00 0.00 12.63 -0.57
588.00 288.00 0.00 12.64 -0.57
589.00 288.00 0.00 12.66 -0.58
590.00 288.00 0.00 12.67 -0.58
591.00 288.00 0.00 12.69 -0.58
592.00 288.00 0.00 12.70 -0.58
593.00 288.00 0.00 12.72 -0.58
594.00 288.00 0.00 12.73 -0.58
595.00 288.00 0.00 12.75 -0.59
596.00 288.00 0.00 12.76 -0.59
597.00 288.00 0.00 12.78 -0.59
598.00 288.00 0.00 12.79 -0.59
599.00 288.00 0.00 12.80 -0.59
600.00 288.00 0.00 12.82 -0.59
601.00 288.00 0.00 12.83 -0.59
602.00 288.00 0.00 12.84 -0.59
603.00 288.00 0.00 12.86 -0.60
604.00 288.00 0.00 12.87 -0.60
605.00 288.00 0.00 12.88 -0.60
606.00 288.00 0.00 12.89 -0.60
607.00 288.00 0.00 12.91 -0.60
608.00 288.00 0.00 12.92 -0.60
609.00 288.00 0.00 12.93 -0.60
610.00 288.00 0.00 12.94 -0.60
611.00 288.00 0.00 12.95 -0.61
612.00 288.00 0.00 12.96 -0.61
613.00 288.00 0.00 12.98 -0.61
614.00 288.00 0.00 12.99 -0.61
615.00 288.00 0.00 13.00 -0.61
616.00 288.00 0.00 13.01 -0.61
617.00 288.00 0.00 13.02 -0.61
618.00 288.00 0.00 13.03 -0.61
619.00 288.00 0.00 13.04 -0.61
620.00 288.00 0.00 13.05 -0.62
621.00 288.00 0.00 13.06 -0.62
622.00 288.00 0.00 13.07 -0.62
623.00 288.00 0.00 13.08 -0.62
624.00 288.00 0.00 13.09 -0.62
625.00 288.00 0.00 13.10 -0.62
626.00 288.00 0.00 13.11 -0.62
627.00 288.00 0.00 13.12 -0.62
628.00 288.00 0.00 13.13 -0.62
629.00 288.00 0.00 13.13 -0.62
630.00 288.00 0.00 13.14 -0.62
631.00 288.00 0.00 13.15 -0.63
632.00 288.00 0.00 13.16 -0.63
633.00 288.00 0.00 13.17 -0.63
634.00 288.00 0.00 13.17 -0.63
635.00 288.00 0.00 13.18 -0.63
636.00 288.00 0.00 13.19 -0.63
637.00 288.00 0.00 13.20 -0.63
638.00 288.00 0.00 13.20 -0.63
639.00 288.00 0.00 13.21 -0.63
640.00 288.00 0.00 13.22 -0.63
641.00 288.00 0.00 13.22 -0.63
642.00 288.00 0.00 13.23 -0.63
643.00 288.00 0.00 13.24 -0.63
644.00 288.00 0.00 13.24 -0.64
645.00 288.00 0.00 13.25 -0.64
646.00 288.00 0.00 13.25 -0.64
647.00 288.00 0.00 13.26 -0.64
648.00 288.00 0.00 13.27 -0.64
649.00 288.00 0.00 13.27 -0.64
650.00 288.00 0.00 13.28 -0.64
651.00 288.00 0.00 13.28 -0.64
652.00 288.00 0.00 13.29 -0.64
653.00 288.00 0.00 13.29 -0.64
654.00 288.00 0.00 13.30 -0.64
655.00 288.00 0.00 13.30 -0.64
656.00 288.00 0.00 13.30 -0.64
657.00 288.00 0.00 13.31 -0.64
658.00 288.00 0.00 13.31 -0.64
659.00 288.00 0.00 13.31 -0.64
660.00 288.00 0.00 13.32 -0.64
661.00 288.00 0.00 13.32 -0.64
662.00 288.00 0.00 13.32 -0.64
663.00 288.00 0.00 13.33 -0.64
664.00 288.00 0.00 13.33 -0.64
665.00 288.00 0.00 13.33 -0.64
666.00 288.00 0.00 13.34 -0.64
667.00 288.00 0.00 13.34 -0.64
668.00 288.00 0.00 13.34 -0.64
669.00 288.00 0.00 13.34 -0.64
670.00 288.00 0.00 13.34 -0.65
671.00 288.00 0.00 13.35 -0.65
672.00 288.00 0.00 13.35 -0.65
673.00 288.00 0.00 13.35 -0.65
674.00 288.00 0.00 13.35 -0.65
675.00 288.00 0.00 13.35 -0.65
676.00 288.00 0.00 13.35 -0.65
677.00 288.00 0.00 13.35 -0.65
678.00 288.00 0.00 13.35 -0.65
679.00 288.00 0.00 13.35 -0.65
680.00 288.00 0.00 13.35 -0.65
681.00 288.00 0.00 13.35 -0.65
682.00 288.00 0.00 13.35 -0.65
683.00 288.00 0.00 13.35 -0.65
684.00 288.00 0.00 13.35 -0.65
685.00 288.00 0.00 13.35 -0.65
686.00 288.00 0.00 13.35 -0.65
687.00 288.00 0.00 13.35 -0.65
688.00 288.00 0.00 13.35 -0.65
689.00 288.00 0.00 13.35 -0.65
690.00 288.00 0.00 13.35 -0.65
691.00 288.00 0.00 13.35 -0.65
692.00 288.00 0.00 13.35 -0.65
693.00 288.00 0.00 13.35 -0.65
694.00 288.00 0.00 13.35 -0.65
695.00 288.00 0.00 13.35 -0.65
696.00 288.00 0.00 13.35 -0.65
697.00 288.00 0.00 13.35 -0.65
698.00 288.00 0.00 13.35 -0.65
699.00 288.00 0.00 13.35 -0.65
700.00 288.00 0.00 13.35 -0.65
701.00 288.00 0.00 13.35 -0.65
702.00 288.00 0.00 13.35 -0.65
703.00 288.00 0.00 13.35 -0.65
704.00 288.00 0.00 13.35 -0.65
705.00 288.00 0.00 13.35 -0.65
706.00 288.00 0.00 13.35 -0.65
707.00 288.00 0.00 13.35 -0.65
708.00 288.00 0.00 13.35 -0.65
709.00 288.00 0.00 13.35 -0.65
710.00 288.00 0.00 13.35 -0.65
711.00 288.00 0.00 13.35 -0.65
712.00 288.00 0.00 13.35 -0.65
713.00 288.00 0.00 13.35 -0.65
714.00 288.00 0.00 13.35 -0.65
715.00 288.00 0.00 13.35 -0.65
716.00 288.00 0.00 13.35 -0.65
717.00 288.00 0.00 13.35 -0.65
718.00 288.00 0.00 13.35 -0.65
719.00 288.00 0.00 13.35 -0.65
720.00 288.00 0.00 13.35 -0.65
721.00 288.00 0.00 13.35 -0.65
722.00 288.00 0.00 13.35 -0.65
723.00 288.00 0.00 13.35 -0.65
724.00 288.00 0.00 13.35 -0.65
725.00 288.00 0.00 13.35 -0.65
726.00 288.00 0.00 13.35 -0.65
727.00 288.00 0.00 13.35 -0.65
728.00 288.00 0.00 13.35 -0.65
729.00 288.00 0.00 13.35 -0.65
730.00 288.00 0.00 13.35 -0.65
731.00 288.00 0.00 13.35 -0.65
732.00 288.00 0.00 13.35 -0.65
733.00 288.00 0.00 13.35 -0.65
734.00 288.00 0.00 13.35 -0.65
735.00 288.00 0.00 13.35 -0.65
736.00 288.00 0.00 13.35 -0.65
737.00 288.00 0.00 13.35 -0.65
738.00 288.00 0.00 13.35 -0.65
739.00 288.00 0.00 13.35 -0.65
740.00 288.00 0.00 13.35 -0.65
741.00 288.00 0.00 13.35 -0.65
742.00 288.00 0.00 13.35 -0.65
743.00 288.00 0.00 13.35 -0.65
744.00 288.00 0.00 13.35 -0.65
745.00 288.00 0.00 13.35 -0.65
746.00 288.00 0.00 13.35 -0.65
747.00 288.00 0.00 13.35 -0.65
748.00 288.00 0.00 13.35 -0.65
749.00 288.00 0.00 13.35 -0.65
750.00 288.00 0.00 13.35 -0.65
751.00 288.00 0.00 13.35 -0.65
752.00 288.00 0.00 13.35 -0.65
753.00 288.00 0.00 13.35 -0.65
754.00 288.00 0.00 13.35 -0.65
755.00 288.00 0.00 13.35 -0.65
756.00 288.00 0.00 13.35 -0.65
757.00 288.00 0.00 13.35 -0.65
758.00 288.00 0.00 13.35 -0.65
759.00 288.00 0.00 13.35 -0.65
760.00 288.00 0.00 13.35 -0.65
761.00 288.00 0.00 13.35 -0.65
762.00 288.00 0.00 13.35 -0.65
763.00 288.00 0.00 13.35 -0.65
764.00 288.00 0.00 13.35 -0.65
765.00 288.00 0.00 13.35 -0.65
766.00 288.00 0.00 13.35 -0.65
767.00 288.00 0.00 13.35 -0.65
768.00 288.00 0.00 13.35 -0.65
769.00 288.00 0.00 13.35 -0.65
770.00 288.00 0.00 13.35 -0.65
771.00 288.00 0.00 13.35 -0.65
772.00 288.00 0.00 13.35 -0.65
773.00 288.00 0.00 13.35 -0.65
774.00 288.00 0.00 13.35 -0.65
775.00 288.00 0.00 13.35 -0.65
776.00 288.00 0.00 13.35 -0.65
777.00 288.00 0.00 13.35 -0.65
778.00 288.00 0.00 13.35 -0.65
779.00 288.00 0.00 13.35 -0.65
780.00 288.00 0.00 13.35 -0.65
781.00 288.00 0.00 13.35 -0.65
782.00 288.00 0.00 13.35 -0.65
783.00 288.00 0.00 13.35 -0.65
784.00 288.00 0.00 13.35 -0.65
785.00 288.00 0.00 13.35 -0.65
786.00 288.00 0.00 13.35 -0.65
787.00 288.00 0.00 13.35 -0.65
788.00 288.00 0.00 13.35 -0.65
789.00 288.00 0.00 13.35 -0.65
790.00 288.00 0.00 13.35 -0.65
791.00 288.00 0.00 13.35 -0.65
792.00 288.00 0.00 13.35 -0.65
793.00 288.00 0.00 13.35 -0.65
794.00 288.00 0.00 13.35 -0.65
795.00 288.00 0.00 13.35 -0.65
796.00 288.00 0.00 13.35 -0.65
797.00 288.00 0.00 13.35 -0.65
798.00 288.00 0.00 13.35 -0.65
799.00 288.00 0.00 13.35 -0.65
800.00 288.00 0.00 13.35 -0.65
801.00 288.00 0.00 13.35 -0.65
802.00 288.00 0.00 13.35 -0.65
803.00 288.00 0.00 13.35 -0.65
804.00 288.00 0.00 13.35 -0.65
805.00 288.00 0.00 13.35 -0.65
806.00 288.00 0.00 13.35 -0.65
807.00 288.00 0.00 13.35 -0.65
808.00 288.00 0.00 13.35 -0.65
809.00 288.00 0.00 13.35 -0.65
810.00 288.00 0.00 13.35 -0.65
811.00 288.00 0.00 13.35 -0.65
812.00 288.00 0.00 13.35 -0.65
813.00 288.00 0.00 13.35 -0.65
814.00 288.00 0.00 13.35 -0.65
815.00 288.00 0.00 13.35 -0.65
816.00 288.00 0.00 13.35 -0.65
817.00 288.00 0.00 13.35 -0.65
818.00 288.00 0.00 13.35 -0.65
819.00 288.00 0.00 13.35 -0.65
820.00 288.00 0.00 13.35 -0.65
821.00 288.00 0.00 13.35 -0.65
822.00 288.00 0.00 13.35 -0.65
823.00 288.00 0.00 13.35 -0.65
824.00 288.00 0.00 13.35 -0.65
825.00 288.00 0.00 13.35 -0.65
826.00 288.00 0.00 13.35 -0.65
827.00 288.00 0.00 13.35 -0.65
828.00 288.00 0.00 13.35 -0.65
829.00 288.00 0.00 13.35 -0.65
830.00 288.00 0.00 13.35 -0.65
831.00 288.00 0.00 13.35 -0.65
