1000.00 288.00 00.00
0.00 288.00 0.00 2.77 -4.72
1.00 288.00 0.00 2.77 -4.72
2.00 288.00 0.00 2.77 -4.72
3.00 288.00 0.00 2.77 -4.72
4.00 288.00 0.00 2.77 -4.72
5.00 288.00 0.00 2.77 -4.72
6.00 288.00 0.00 2.77 -4.72
7.00 288.00 0.00 2.77 -4.72
8.00 288.00 0.00 2.77 -4.72
9.00 288.00 0.00 2.77 -4.72
10.00 288.00 0.00 2.77 -4.72
11.00 288.00 0.00 2.77 -4.72
12.00 288.00 0.00 2.77 -4.72
13.00 288.00 0.00 2.77 -4.72
14.00 288.00 0.00 2.77 -4.72
15.00 288.00 0.00 2.77 -4.72
16.00 288.00 0.00 2.77 -4.72
17.00 288.00 0.00 2.77 -4.72
18.00 288.00 0.00 2.77 -4.72
19.00 288.00 0.00 2.77 -4.72
20.00 288.00 0.00 2.77 -4.72
21.00 288.00 0.00 2.77 -4.72
22.00 288.00 0.00 2.77 -4.72
23.00 288.00 0.00 2.77 -4.72
24.00 288.00 0.00 2.77 -4.72
25.00 288.00 0.00 2.77 -4.72
26.00 288.00 0.00 2.77 -4.72
27.00 288.00 0.00 2.77 -4.72
28.00 288.00 0.00 2.77 -4.72
29.00 288.00 0.00 2.77 -4.72
30.00 288.00 0.00 2.77 -4.72
31.00 288.00 0.00 2.77 -4.72
32.00 288.00 0.00 2.77 -4.72
33.00 288.00 0.00 2.77 -4.72
34.00 288.00 0.00 2.77 -4.72
35.00 288.00 0.00 2.77 -4.72
36.00 288.00 0.00 2.77 -4.72
37.00 288.00 0.00 2.77 -4.72
38.00 288.00 0.00 2.77 -4.72
39.00 288.00 0.00 2.77 -4.72
40.00 288.00 0.00 2.77 -4.72
41.00 288.00 0.00 2.77 -4.72
42.00 288.00 0.00 2.77 -4.72
43.00 288.00 0.00 2.77 -4.72
44.00 288.00 0.00 2.77 -4.72
45.00 288.00 0.00 2.77 -4.72
46.00 288.00 0.00 2.77 -4.72
47.00 288.00 0.00 2.77 -4.72
48.00 288.00 0.00 2.77 -4.72
49.00 288.00 0.00 2.77 -4.72
50.00 288.00 0.00 2.77 -4.72
51.00 288.00 0.00 2.77 -4.72
52.00 288.00 0.00 2.77 -4.72
53.00 288.00 0.00 2.77 -4.72
54.00 288.00 0.00 2.77 -4.72
55.00 288.00 0.00 2.77 -4.72
56.00 288.00 0.00 2.77 -4.72
57.00 288.00 0.00 2.77 -4.72
58.00 288.00 0.00 2.77 -4.72
59.00 288.00 0.00 2.77 -4.72
60.00 288.00 0.00 2.77 -4.72
61.00 288.00 0.00 2.77 -4.72
62.00 288.00 0.00 2.77 -4.72
63.00 288.00 0.00 2.77 -4.72
64.00 288.00 0.00 2.77 -4.72
65.00 288.00 0.00 2.77 -4.72
66.00 288.00 0.00 2.77 -4.72
67.00 288.00 0.00 2.77 -4.72
68.00 288.00 0.00 2.77 -4.72
69.00 288.00 0.00 2.77 -4.72
70.00 288.00 0.00 2.77 -4.72
71.00 288.00 0.00 2.77 -4.72
72.00 288.00 0.00 2.77 -4.72
73.00 288.00 0.00 2.77 -4.72
74.00 288.00 0.00 2.77 -4.72
75.00 288.00 0.00 2.77 -4.72
76.00 288.00 0.00 2.77 -4.72
77.00 288.00 0.00 2.77 -4.72
78.00 288.00 0.00 2.77 -4.72
79.00 288.00 0.00 2.77 -4.72
80.00 288.00 0.00 2.77 -4.71
81.00 288.00 0.00 2.77 -4.71
82.00 288.00 0.00 2.77 -4.71
83.00 288.00 0.00 2.77 -4.71
84.00 288.00 0.00 2.77 -4.71
85.00 288.00 0.00 2.77 -4.71
86.00 288.00 0.00 2.77 -4.71
87.00 288.00 0.00 2.77 -4.71
88.00 288.00 0.00 2.77 -4.71
89.00 288.00 0.00 2.77 -4.71
90.00 288.00 0.00 2.77 -4.71
91.00 288.00 0.00 2.78 -4.70
92.00 288.00 0.00 2.78 -4.70
93.00 288.00 0.00 2.78 -4.70
94.00 288.00 0.00 2.78 -4.70
95.00 288.00 0.00 2.78 -4.70
96.00 288.00 0.00 2.79 -4.70
97.00 288.00 0.00 2.79 -4.69
98.00 288.00 0.00 2.79 -4.69
99.00 288.00 0.00 2.79 -4.69
100.00 288.00 0.00 2.79 -4.69
101.00 288.00 0.00 2.80 -4.68
102.00 288.00 0.00 2.80 -4.68
103.00 288.00 0.00 2.80 -4.68
104.00 288.00 0.00 2.81 -4.68
105.00 288.00 0.00 2.81 -4.67
106.00 288.00 0.00 2.81 -4.67
107.00 288.00 0.00 2.82 -4.67
108.00 288.00 0.00 2.82 -4.66
109.00 288.00 0.00 2.82 -4.66
110.00 288.00 0.00 2.83 -4.66
111.00 288.00 0.00 2.83 -4.65
112.00 288.00 0.00 2.83 -4.65
113.00 288.00 0.00 2.84 -4.65
114.00 288.00 0.00 2.84 -4.64
115.00 288.00 0.00 2.85 -4.64
116.00 288.00 0.00 2.85 -4.64
117.00 288.00 0.00 2.85 -4.63
118.00 288.00 0.00 2.86 -4.63
119.00 288.00 0.00 2.86 -4.62
120.00 288.00 0.00 2.87 -4.62
121.00 288.00 0.00 2.87 -4.61
122.00 288.00 0.00 2.88 -4.61
123.00 288.00 0.00 2.88 -4.61
124.00 288.00 0.00 2.89 -4.60
125.00 288.00 0.00 2.89 -4.60
126.00 288.00 0.00 2.90 -4.59
127.00 288.00 0.00 2.91 -4.59
128.00 288.00 0.00 2.91 -4.58
129.00 288.00 0.00 2.92 -4.57
130.00 288.00 0.00 2.92 -4.57
131.00 288.00 0.00 2.93 -4.56
132.00 288.00 0.00 2.93 -4.56
133.00 288.00 0.00 2.94 -4.55
134.00 288.00 0.00 2.95 -4.55
135.00 288.00 0.00 2.95 -4.54
136.00 288.00 0.00 2.96 -4.53
137.00 288.00 0.00 2.97 -4.53
138.00 288.00 0.00 2.97 -4.52
139.00 288.00 0.00 2.98 -4.51
140.00 288.00 0.00 2.99 -4.51
141.00 288.00 0.00 2.99 -4.50
142.00 288.00 0.00 3.00 -4.49
143.00 288.00 0.00 3.01 -4.49
144.00 288.00 0.00 3.02 -4.48
145.00 288.00 0.00 3.02 -4.47
146.00 288.00 0.00 3.03 -4.47
147.00 288.00 0.00 3.04 -4.46
148.00 288.00 0.00 3.05 -4.45
149.00 288.00 0.00 3.05 -4.44
150.00 288.00 0.00 3.06 -4.44
151.00 288.00 0.00 3.07 -4.43
152.00 288.00 0.00 3.08 -4.42
153.00 288.00 0.00 3.09 -4.41
154.00 288.00 0.00 3.10 -4.40
155.00 288.00 0.00 3.10 -4.40
156.00 288.00 0.00 3.11 -4.39
157.00 288.00 0.00 3.12 -4.38
158.00 288.00 0.00 3.13 -4.37
159.00 288.00 0.00 3.14 -4.36
160.00 288.00 0.00 3.15 -4.35
161.00 288.00 0.00 3.16 -4.34
162.00 288.00 0.00 3.17 -4.34
163.00 288.00 0.00 3.18 -4.33
164.00 288.00 0.00 3.19 -4.32
165.00 288.00 0.00 3.20 -4.31
166.00 288.00 0.00 3.21 -4.30
167.00 288.00 0.00 3.22 -4.29
168.00 288.00 0.00 3.23 -4.28
169.00 288.00 0.00 3.24 -4.27
170.00 288.00 0.00 3.25 -4.26
171.00 288.00 0.00 3.26 -4.25
172.00 288.00 0.00 3.27 -4.24
173.00 288.00 0.00 3.28 -4.23
174.00 288.00 0.00 3.29 -4.22
175.00 288.00 0.00 3.30 -4.21
176.00 288.00 0.00 3.31 -4.20
177.00 288.00 0.00 3.32 -4.18
178.00 288.00 0.00 3.33 -4.17
179.00 288.00 0.00 3.35 -4.16
180.00 288.00 0.00 3.36 -4.15
181.00 288.00 0.00 3.37 -4.14
182.00 288.00 0.00 3.38 -4.13
183.00 288.00 0.00 3.39 -4.12
184.00 288.00 0.00 3.40 -4.10
185.00 288.00 0.00 3.42 -4.09
186.00 288.00 0.00 3.43 -4.08
187.00 288.00 0.00 3.44 -4.07
188.00 288.00 0.00 3.45 -4.06
189.00 288.00 0.00 3.46 -4.04
190.00 288.00 0.00 3.48 -4.03
191.00 288.00 0.00 3.49 -4.02
192.00 288.00 0.00 3.50 -4.01
193.00 288.00 0.00 3.52 -3.99
194.00 288.00 0.00 3.53 -3.98
195.00 288.00 0.00 3.54 -3.97
196.00 288.00 0.00 3.55 -3.95
197.00 288.00 0.00 3.57 -3.94
198.00 288.00 0.00 3.58 -3.93
199.00 288.00 0.00 3.59 -3.91
200.00 288.00 0.00 3.61 -3.90
201.00 288.00 0.00 3.62 -3.88
202.00 288.00 0.00 3.64 -3.87
203.00 288.00 0.00 3.65 -3.86
204.00 288.00 0.00 3.66 -3.84
205.00 288.00 0.00 3.68 -3.83
206.00 288.00 0.00 3.69 -3.81
207.00 288.00 0.00 3.71 -3.80
208.00 288.00 0.00 3.72 -3.78
209.00 288.00 0.00 3.74 -3.77
210.00 288.00 0.00 3.75 -3.75
211.00 288.00 0.00 3.77 -3.74
212.00 288.00 0.00 3.78 -3.72
213.00 288.00 0.00 3.80 -3.71
214.00 288.00 0.00 3.81 -3.69
215.00 288.00 0.00 3.83 -3.67
216.00 288.00 0.00 3.84 -3.66
217.00 288.00 0.00 3.86 -3.64
218.00 288.00 0.00 3.87 -3.63
219.00 288.00 0.00 3.89 -3.61
220.00 288.00 0.00 3.90 -3.59
221.00 288.00 0.00 3.92 -3.57
222.00 288.00 0.00 3.94 -3.56
223.00 288.00 0.00 3.95 -3.54
224.00 288.00 0.00 3.97 -3.52
225.00 288.00 0.00 3.99 -3.51
226.00 288.00 0.00 4.00 -3.49
227.00 288.00 0.00 4.02 -3.47
228.00 288.00 0.00 4.04 -3.45
229.00 288.00 0.00 4.05 -3.44
230.00 288.00 0.00 4.07 -3.42
231.00 288.00 0.00 4.09 -3.40
232.00 288.00 0.00 4.10 -3.38
233.00 288.00 0.00 4.12 -3.36
234.00 288.00 0.00 4.14 -3.34
235.00 288.00 0.00 4.16 -3.32
236.00 288.00 0.00 4.17 -3.30
237.00 288.00 0.00 4.19 -3.29
238.00 288.00 0.00 4.21 -3.27
239.00 288.00 0.00 4.23 -3.25
240.00 288.00 0.00 4.25 -3.23
241.00 288.00 0.00 4.26 -3.21
242.00 288.00 0.00 4.28 -3.19
243.00 288.00 0.00 4.30 -3.17
244.00 288.00 0.00 4.32 -3.15
245.00 288.00 0.00 4.34 -3.13
246.00 288.00 0.00 4.36 -3.11
247.00 288.00 0.00 4.38 -3.09
248.00 288.00 0.00 4.39 -3.06
249.00 288.00 0.00 4.41 -3.04
250.00 288.00 0.00 4.43 -3.02
251.00 288.00 0.00 4.45 -3.00
252.00 288.00 0.00 4.47 -2.98
253.00 288.00 0.00 4.49 -2.96
254.00 288.00 0.00 4.51 -2.94
255.00 288.00 0.00 4.53 -2.91
256.00 288.00 0.00 4.55 -2.89
257.00 288.00 0.00 4.57 -2.87
258.00 288.00 0.00 4.59 -2.85
259.00 288.00 0.00 4.61 -2.82
260.00 288.00 0.00 4.63 -2.80
261.00 288.00 0.00 4.65 -2.78
262.00 288.00 0.00 4.67 -2.76
263.00 288.00 0.00 4.69 -2.74
264.00 288.00 0.00 4.71 -2.71
265.00 288.00 0.00 4.73 -2.69
266.00 288.00 0.00 4.75 -2.67
267.00 288.00 0.00 4.77 -2.64
268.00 288.00 0.00 4.79 -2.62
269.00 288.00 0.00 4.81 -2.60
270.00 288.00 0.00 4.83 -2.58
271.00 288.00 0.00 4.85 -2.55
272.00 288.00 0.00 4.87 -2.53
273.00 288.00 0.00 4.89 -2.51
274.00 288.00 0.00 4.91 -2.49
275.00 288.00 0.00 4.93 -2.46
276.00 288.00 0.00 4.95 -2.44
277.00 288.00 0.00 4.97 -2.42
278.00 288.00 0.00 4.99 -2.39
279.00 288.00 0.00 5.01 -2.37
280.00 288.00 0.00 5.03 -2.35
281.00 288.00 0.00 5.05 -2.33
282.00 288.00 0.00 5.07 -2.30
283.00 288.00 0.00 5.09 -2.28
284.00 288.00 0.00 5.11 -2.26
285.00 288.00 0.00 5.13 -2.23
286.00 288.00 0.00 5.15 -2.21
287.00 288.00 0.00 5.17 -2.19
288.00 288.00 0.00 5.19 -2.16
289.00 288.00 0.00 5.21 -2.14
290.00 288.00 0.00 5.23 -2.12
291.00 288.00 0.00 5.25 -2.09
292.00 288.00 0.00 5.27 -2.07
293.00 288.00 0.00 5.29 -2.05
294.00 288.00 0.00 5.31 -2.02
295.00 288.00 0.00 5.33 -2.00
296.00 288.00 0.00 5.35 -1.98
297.00 288.00 0.00 5.37 -1.95
298.00 288.00 0.00 5.39 -1.93
299.00 288.00 0.00 5.41 -1.91
300.00 288.00 0.00 5.43 -1.88
301.00 288.00 0.00 5.45 -1.86
302.00 288.00 0.00 5.47 -1.84
303.00 288.00 0.00 5.49 -1.81
304.00 288.00 0.00 5.51 -1.79
305.00 288.00 0.00 5.53 -1.76
306.00 288.00 0.00 5.55 -1.74
307.00 288.00 0.00 5.57 -1.72
308.00 288.00 0.00 5.59 -1.69
309.00 288.00 0.00 5.61 -1.67
310.00 288.00 0.00 5.63 -1.65
311.00 288.00 0.00 5.65 -1.62
312.00 288.00 0.00 5.67 -1.60
313.00 288.00 0.00 5.69 -1.57
314.00 288.00 0.00 5.71 -1.55
315.00 288.00 0.00 5.73 -1.53
316.00 288.00 0.00 5.75 -1.50
317.00 288.00 0.00 5.77 -1.48
318.00 288.00 0.00 5.79 -1.46
319.00 288.00 0.00 5.81 -1.43
320.00 288.00 0.00 5.83 -1.41
321.00 288.00 0.00 5.85 -1.38
322.00 288.00 0.00 5.87 -1.36
323.00 288.00 0.00 5.89 -1.34
324.00 288.00 0.00 5.91 -1.31
325.00 288.00 0.00 5.93 -1.29
326.00 288.00 0.00 5.95 -1.26
327.00 288.00 0.00 5.97 -1.24
328.00 288.00 0.00 5.99 -1.22
329.00 288.00 0.00 6.01 -1.19
330.00 288.00 0.00 6.03 -1.17
331.00 288.00 0.00 6.05 -1.14
332.00 288.00 0.00 6.07 -1.12
333.00 288.00 0.00 6.09 -1.10
334.00 288.00 0.00 6.11 -1.07
335.00 288.00 0.00 6.13 -1.05
336.00 288.00 0.00 6.15 -1.02
337.00 288.00 0.00 6.17 -1.00
338.00 288.00 0.00 6.19 -0.97
339.00 288.00 0.00 6.21 -0.95
340.00 288.00 0.00 6.23 -0.93
341.00 288.00 0.00 6.25 -0.90
342.00 288.00 0.00 6.27 -0.88
343.00 288.00 0.00 6.29 -0.85
344.00 288.00 0.00 6.31 -0.83
345.00 288.00 0.00 6.33 -0.80
346.00 288.00 0.00 6.35 -0.78
347.00 288.00 0.00 6.37 -0.76
348.00 288.00 0.00 6.39 -0.73
349.00 288.00 0.00 6.41 -0.71
350.00 288.00 0.00 6.43 -0.68
351.00 288.00 0.00 6.45 -0.66
352.00 288.00 0.00 6.47 -0.63
353.00 288.00 0.00 6.49 -0.61
354.00 288.00 0.00 6.51 -0.59
355.00 288.00 0.00 6.53 -0.56
356.00 288.00 0.00 6.55 -0.54
357.00 288.00 0.00 6.57 -0.51
358.00 288.00 0.00 6.59 -0.49
359.00 288.00 0.00 6.61 -0.46
360.00 288.00 0.00 6.63 -0.44
361.00 288.00 0.00 6.65 -0.42
362.00 288.00 0.00 6.67 -0.39
363.00 288.00 0.00 6.69 -0.37
364.00 288.00 0.00 6.71 -0.34
365.00 288.00 0.00 6.73 -0.32
366.00 288.00 0.00 6.75 -0.29
367.00 288.00 0.00 6.77 -0.27
368.00 288.00 0.00 6.79 -0.24
369.00 288.00 0.00 6.81 -0.22
370.00 288.00 0.00 6.83 -0.20
371.00 288.00 0.00 6.85 -0.17
372.00 288.00 0.00 6.87 -0.15
373.00 288.00 0.00 6.89 -0.12
374.00 288.00 0.00 6.91 -0.10
375.00 288.00 0.00 6.93 -0.07
376.00 288.00 0.00 6.95 -0.05
377.00 288.00 0.00 6.97 -0.02
378.00 288.00 0.00 6.99 0.00
379.00 288.00 0.00 7.01 0.02
380.00 288.00 0.00 7.03 0.05
381.00 288.00 0.00 7.05 0.07
382.00 288.00 0.00 7.07 0.10
383.00 288.00 0.00 7.09 0.12
384.00 288.00 0.00 7.11 0.15
385.00 288.00 0.00 7.13 0.17
386.00 288.00 0.00 7.15 0.20
387.00 288.00 0.00 7.17 0.22
388.00 288.00 0.00 7.19 0.24
389.00 288.00 0.00 7.21 0.27
390.00 288.00 0.00 7.23 0.29
391.00 288.00 0.00 7.25 0.32
392.00 288.00 0.00 7.27 0.34
393.00 288.00 0.00 7.29 0.37
394.00 288.00 0.00 7.31 0.39
395.00 288.00 0.00 7.33 0.42
396.00 288.00 0.00 7.35 0.44
397.00 288.00 0.00 7.37 0.46
398.00 288.00 0.00 7.39 0.49
399.00 288.00 0.00 7.41 0.51
400.00 288.00 0.00 7.43 0.54
401.00 288.00 0.00 7.45 0.56
402.00 288.00 0.00 7.47 0.59
403.00 288.00 0.00 7.49 0.61
404.00 288.00 0.00 7.51 0.63
405.00 288.00 0.00 7.53 0.66
406.00 288.00 0.00 7.55 0.68
407.00 288.00 0.00 7.57 0.71
408.00 288.00 0.00 7.59 0.73
409.00 288.00 0.00 7.61 0.76
410.00 288.00 0.00 7.63 0.78
411.00 288.00 0.00 7.65 0.80
412.00 288.00 0.00 7.67 0.83
413.00 288.00 0.00 7.69 0.85
414.00 288.00 0.00 7.71 0.88
415.00 288.00 0.00 7.73 0.90
416.00 288.00 0.00 7.75 0.93
417.00 288.00 0.00 7.77 0.95
418.00 288.00 0.00 7.79 0.97
419.00 288.00 0.00 7.81 1.00
420.00 288.00 0.00 7.83 1.02
421.00 288.00 0.00 7.85 1.05
422.00 288.00 0.00 7.87 1.07
423.00 288.00 0.00 7.89 1.10
424.00 288.00 0.00 7.91 1.12
425.00 288.00 0.00 7.93 1.14
426.00 288.00 0.00 7.95 1.17
427.00 288.00 0.00 7.97 1.19
428.00 288.00 0.00 7.99 1.22
429.00 288.00 0.00 8.01 1.24
430.00 288.00 0.00 8.03 1.26
431.00 288.00 0.00 8.05 1.29
432.00 288.00 0.00 8.07 1.31
433.00 288.00 0.00 8.09 1.34
434.00 288.00 0.00 8.11 1.36
435.00 288.00 0.00 8.13 1.38
436.00 288.00 0.00 8.15 1.41
437.00 288.00 0.00 8.17 1.43
438.00 288.00 0.00 8.19 1.46
439.00 288.00 0.00 8.21 1.48
440.00 288.00 0.00 8.23 1.50
441.00 288.00 0.00 8.25 1.53
442.00 288.00 0.00 8.27 1.55
443.00 288.00 0.00 8.29 1.57
444.00 288.00 0.00 8.31 1.60
445.00 288.00 0.00 8.33 1.62
446.00 288.00 0.00 8.35 1.65
447.00 288.00 0.00 8.37 1.67
448.00 288.00 0.00 8.39 1.69
449.00 288.00 0.00 8.41 1.72
450.00 288.00 0.00 8.43 1.74
451.00 288.00 0.00 8.45 1.76
452.00 288.00 0.00 8.47 1.79
453.00 288.00 0.00 8.49 1.81
454.00 288.00 0.00 8.51 1.84
455.00 288.00 0.00 8.53 1.86
456.00 288.00 0.00 8.55 1.88
457.00 288.00 0.00 8.57 1.91
458.00 288.00 0.00 8.59 1.93
459.00 288.00 0.00 8.61 1.95
460.00 288.00 0.00 8.63 1.98
461.00 288.00 0.00 8.65 2.00
462.00 288.00 0.00 8.67 2.02
463.00 288.00 0.00 8.69 2.05
464.00 288.00 0.00 8.71 2.07
465.00 288.00 0.00 8.73 2.09
466.00 288.00 0.00 8.75 2.12
467.00 288.00 0.00 8.77 2.14
468.00 288.00 0.00 8.79 2.16
469.00 288.00 0.00 8.81 2.19
470.00 288.00 0.00 8.83 2.21
471.00 288.00 0.00 8.85 2.23
472.00 288.00 0.00 8.87 2.26
473.00 288.00 0.00 8.89 2.28
474.00 288.00 0.00 8.91 2.30
475.00 288.00 0.00 8.93 2.33
476.00 288.00 0.00 8.95 2.35
477.00 288.00 0.00 8.97 2.37
478.00 288.00 0.00 8.99 2.39
479.00 288.00 0.00 9.01 2.42
480.00 288.00 0.00 9.03 2.44
481.00 288.00 0.00 9.05 2.46
482.00 288.00 0.00 9.07 2.49
483.00 288.00 0.00 9.09 2.51
484.00 288.00 0.00 9.11 2.53
485.00 288.00 0.00 9.13 2.55
486.00 288.00 0.00 9.15 2.58
487.00 288.00 0.00 9.17 2.60
488.00 288.00 0.00 9.19 2.62
489.00 288.00 0.00 9.21 2.64
490.00 288.00 0.00 9.23 2.67
491.00 288.00 0.00 9.25 2.69
492.00 288.00 0.00 9.27 2.71
493.00 288.00 0.00 9.29 2.74
494.00 288.00 0.00 9.31 2.76
495.00 288.00 0.00 9.33 2.78
496.00 288.00 0.00 9.35 2.80
497.00 288.00 0.00 9.37 2.82
498.00 288.00 0.00 9.39 2.85
499.00 288.00 0.00 9.41 2.87
500.00 288.00 0.00 9.43 2.89
501.00 288.00 0.00 9.45 2.91
502.00 288.00 0.00 9.47 2.94
503.00 288.00 0.00 9.49 2.96
504.00 288.00 0.00 9.51 2.98
505.00 288.00 0.00 9.53 3.00
506.00 288.00 0.00 9.55 3.02
507.00 288.00 0.00 9.57 3.04
508.00 288.00 0.00 9.59 3.06
509.00 288.00 0.00 9.61 3.09
510.00 288.00 0.00 9.62 3.11
511.00 288.00 0.00 9.64 3.13
512.00 288.00 0.00 9.66 3.15
513.00 288.00 0.00 9.68 3.17
514.00 288.00 0.00 9.70 3.19
515.00 288.00 0.00 9.72 3.21
516.00 288.00 0.00 9.74 3.23
517.00 288.00 0.00 9.75 3.25
518.00 288.00 0.00 9.77 3.27
519.00 288.00 0.00 9.79 3.29
520.00 288.00 0.00 9.81 3.30
521.00 288.00 0.00 9.83 3.32
522.00 288.00 0.00 9.84 3.34
523.00 288.00 0.00 9.86 3.36
524.00 288.00 0.00 9.88 3.38
525.00 288.00 0.00 9.90 3.40
526.00 288.00 0.00 9.91 3.42
527.00 288.00 0.00 9.93 3.44
528.00 288.00 0.00 9.95 3.45
529.00 288.00 0.00 9.96 3.47
530.00 288.00 0.00 9.98 3.49
531.00 288.00 0.00 10.00 3.51
532.00 288.00 0.00 10.01 3.52
533.00 288.00 0.00 10.03 3.54
534.00 288.00 0.00 10.05 3.56
535.00 288.00 0.00 10.06 3.57
536.00 288.00 0.00 10.08 3.59
537.00 288.00 0.00 10.10 3.61
538.00 288.00 0.00 10.11 3.63
539.00 288.00 0.00 10.13 3.64
540.00 288.00 0.00 10.14 3.66
541.00 288.00 0.00 10.16 3.67
542.00 288.00 0.00 10.17 3.69
543.00 288.00 0.00 10.19 3.71
544.00 288.00 0.00 10.20 3.72
545.00 288.00 0.00 10.22 3.74
546.00 288.00 0.00 10.23 3.75
547.00 288.00 0.00 10.25 3.77
548.00 288.00 0.00 10.26 3.78
549.00 288.00 0.00 10.28 3.80
550.00 288.00 0.00 10.29 3.81
551.00 288.00 0.00 10.31 3.83
552.00 288.00 0.00 10.32 3.84
553.00 288.00 0.00 10.34 3.86
554.00 288.00 0.00 10.35 3.87
555.00 288.00 0.00 10.36 3.88
556.00 288.00 0.00 10.38 3.90
557.00 288.00 0.00 10.39 3.91
558.00 288.00 0.00 10.41 3.93
559.00 288.00 0.00 10.42 3.94
560.00 288.00 0.00 10.43 3.95
561.00 288.00 0.00 10.45 3.97
562.00 288.00 0.00 10.46 3.98
563.00 288.00 0.00 10.47 3.99
564.00 288.00 0.00 10.48 4.01
565.00 288.00 0.00 10.50 4.02
566.00 288.00 0.00 10.51 4.03
567.00 288.00 0.00 10.52 4.04
568.00 288.00 0.00 10.54 4.06
569.00 288.00 0.00 10.55 4.07
570.00 288.00 0.00 10.56 4.08
571.00 288.00 0.00 10.57 4.09
572.00 288.00 0.00 10.58 4.10
573.00 288.00 0.00 10.60 4.12
574.00 288.00 0.00 10.61 4.13
575.00 288.00 0.00 10.62 4.14
576.00 288.00 0.00 10.63 4.15
577.00 288.00 0.00 10.64 4.16
578.00 288.00 0.00 10.65 4.17
579.00 288.00 0.00 10.67 4.18
580.00 288.00 0.00 10.68 4.20
581.00 288.00 0.00 10.69 4.21
582.00 288.00 0.00 10.70 4.22
583.00 288.00 0.00 10.71 4.23
584.00 288.00 0.00 10.72 4.24
585.00 288.00 0.00 10.73 4.25
586.00 288.00 0.00 10.74 4.26
587.00 288.00 0.00 10.75 4.27
588.00 288.00 0.00 10.76 4.28
589.00 288.00 0.00 10.77 4.29
590.00 288.00 0.00 10.78 4.30
591.00 288.00 0.00 10.79 4.31
592.00 288.00 0.00 10.80 4.32
593.00 288.00 0.00 10.81 4.33
594.00 288.00 0.00 10.82 4.34
595.00 288.00 0.00 10.83 4.34
596.00 288.00 0.00 10.84 4.35
597.00 288.00 0.00 10.85 4.36
598.00 288.00 0.00 10.86 4.37
599.00 288.00 0.00 10.87 4.38
600.00 288.00 0.00 10.88 4.39
601.00 288.00 0.00 10.89 4.40
602.00 288.00 0.00 10.90 4.40
603.00 288.00 0.00 10.90 4.41
604.00 288.00 0.00 10.91 4.42
605.00 288.00 0.00 10.92 4.43
606.00 288.00 0.00 10.93 4.44
607.00 288.00 0.00 10.94 4.44
608.00 288.00 0.00 10.95 4.45
609.00 288.00 0.00 10.95 4.46
610.00 288.00 0.00 10.96 4.47
611.00 288.00 0.00 10.97 4.47
612.00 288.00 0.00 10.98 4.48
613.00 288.00 0.00 10.98 4.49
614.00 288.00 0.00 10.99 4.49
615.00 288.00 0.00 11.00 4.50
616.00 288.00 0.00 11.01 4.51
617.00 288.00 0.00 11.01 4.51
618.00 288.00 0.00 11.02 4.52
619.00 288.00 0.00 11.03 4.53
620.00 288.00 0.00 11.03 4.53
621.00 288.00 0.00 11.04 4.54
622.00 288.00 0.00 11.05 4.55
623.00 288.00 0.00 11.05 4.55
624.00 288.00 0.00 11.06 4.56
625.00 288.00 0.00 11.07 4.56
626.00 288.00 0.00 11.07 4.57
627.00 288.00 0.00 11.08 4.57
628.00 288.00 0.00 11.08 4.58
629.00 288.00 0.00 11.09 4.59
630.00 288.00 0.00 11.09 4.59
631.00 288.00 0.00 11.10 4.60
632.00 288.00 0.00 11.11 4.60
633.00 288.00 0.00 11.11 4.61
634.00 288.00 0.00 11.12 4.61
635.00 288.00 0.00 11.12 4.61
636.00 288.00 0.00 11.13 4.62
637.00 288.00 0.00 11.13 4.62
638.00 288.00 0.00 11.14 4.63
639.00 288.00 0.00 11.14 4.63
640.00 288.00 0.00 11.15 4.64
641.00 288.00 0.00 11.15 4.64
642.00 288.00 0.00 11.15 4.64
643.00 288.00 0.00 11.16 4.65
644.00 288.00 0.00 11.16 4.65
645.00 288.00 0.00 11.17 4.65
646.00 288.00 0.00 11.17 4.66
647.00 288.00 0.00 11.17 4.66
648.00 288.00 0.00 11.18 4.66
649.00 288.00 0.00 11.18 4.67
650.00 288.00 0.00 11.18 4.67
651.00 288.00 0.00 11.19 4.67
652.00 288.00 0.00 11.19 4.68
653.00 288.00 0.00 11.19 4.68
654.00 288.00 0.00 11.20 4.68
655.00 288.00 0.00 11.20 4.68
656.00 288.00 0.00 11.20 4.69
657.00 288.00 0.00 11.21 4.69
658.00 288.00 0.00 11.21 4.69
659.00 288.00 0.00 11.21 4.69
660.00 288.00 0.00 11.21 4.70
661.00 288.00 0.00 11.21 4.70
662.00 288.00 0.00 11.22 4.70
663.00 288.00 0.00 11.22 4.70
664.00 288.00 0.00 11.22 4.70
665.00 288.00 0.00 11.22 4.70
666.00 288.00 0.00 11.22 4.71
667.00 288.00 0.00 11.23 4.71
668.00 288.00 0.00 11.23 4.71
669.00 288.00 0.00 11.23 4.71
670.00 288.00 0.00 11.23 4.71
671.00 288.00 0.00 11.23 4.71
672.00 288.00 0.00 11.23 4.71
673.00 288.00 0.00 11.23 4.71
674.00 288.00 0.00 11.23 4.71
675.00 288.00 0.00 11.23 4.71
676.00 288.00 0.00 11.23 4.71
677.00 288.00 0.00 11.23 4.72
678.00 288.00 0.00 11.23 4.72
679.00 288.00 0.00 11.23 4.72
680.00 288.00 0.00 11.24 4.72
681.00 288.00 0.00 11.24 4.72
682.00 288.00 0.00 11.24 4.72
683.00 288.00 0.00 11.24 4.72
684.00 288.00 0.00 11.24 4.72
685.00 288.00 0.00 11.24 4.72
686.00 288.00 0.00 11.24 4.72
687.00 288.00 0.00 11.24 4.72
688.00 288.00 0.00 11.24 4.72
689.00 288.00 0.00 11.24 4.72
690.00 288.00 0.00 11.24 4.72
691.00 288.00 0.00 11.24 4.72
692.00 288.00 0.00 11.24 4.72
693.00 288.00 0.00 11.24 4.72
694.00 288.00 0.00 11.24 4.72
695.00 288.00 0.00 11.24 4.72
696.00 288.00 0.00 11.24 4.72
697.00 288.00 0.00 11.24 4.72
698.00 288.00 0.00 11.24 4.72
699.00 288.00 0.00 11.24 4.72
700.00 288.00 0.00 11.24 4.72
701.00 288.00 0.00 11.24 4.72
702.00 288.00 0.00 11.24 4.72
703.00 288.00 0.00 11.24 4.72
704.00 288.00 0.00 11.24 4.72
705.00 288.00 0.00 11.24 4.72
706.00 288.00 0.00 11.24 4.72
707.00 288.00 0.00 11.24 4.72
708.00 288.00 0.00 11.24 4.72
709.00 288.00 0.00 11.24 4.72
710.00 288.00 0.00 11.24 4.72
711.00 288.00 0.00 11.24 4.72
712.00 288.00 0.00 11.24 4.72
713.00 288.00 0.00 11.24 4.72
714.00 288.00 0.00 11.24 4.72
715.00 288.00 0.00 11.24 4.72
716.00 288.00 0.00 11.24 4.72
717.00 288.00 0.00 11.24 4.72
718.00 288.00 0.00 11.24 4.72
719.00 288.00 0.00 11.24 4.72
720.00 288.00 0.00 11.24 4.72
721.00 288.00 0.00 11.24 4.72
722.00 288.00 0.00 11.24 4.72
723.00 288.00 0.00 11.24 4.72
724.00 288.00 0.00 11.24 4.72
725.00 288.00 0.00 11.24 4.72
726.00 288.00 0.00 11.24 4.72
727.00 288.00 0.00 11.24 4.72
728.00 288.00 0.00 11.24 4.72
729.00 288.00 0.00 11.24 4.72
730.00 288.00 0.00 11.24 4.72
731.00 288.00 0.00 11.24 4.72
732.00 288.00 0.00 11.24 4.72
733.00 288.00 0.00 11.24 4.72
734.00 288.00 0.00 11.24 4.72
735.00 288.00 0.00 11.24 4.72
736.00 288.00 0.00 11.24 4.72
737.00 288.00 0.00 11.24 4.72
738.00 288.00 0.00 11.24 4.72
739.00 288.00 0.00 11.24 4.72
740.00 288.00 0.00 11.24 4.72
741.00 288.00 0.00 11.24 4.72
742.00 288.00 0.00 11.24 4.72
743.00 288.00 0.00 11.24 4.72
744.00 288.00 0.00 11.24 4.72
745.00 288.00 0.00 11.24 4.72
746.00 288.00 0.00 11.24 4.72
747.00 288.00 0.00 11.24 4.72
748.00 288.00 0.00 11.24 4.72
749.00 288.00 0.00 11.24 4.72
750.00 288.00 0.00 11.24 4.72
751.00 288.00 0.00 11.24 4.72
752.00 288.00 0.00 11.24 4.72
753.00 288.00 0.00 11.24 4.72
754.00 288.00 0.00 11.24 4.72
755.00 288.00 0.00 11.24 4.72
756.00 288.00 0.00 11.24 4.72
757.00 288.00 0.00 11.24 4.72
758.00 288.00 0.00 11.24 4.72
759.00 288.00 0.00 11.24 4.72
760.00 288.00 0.00 11.24 4.72
761.00 288.00 0.00 11.24 4.72
762.00 288.00 0.00 11.24 4.72
763.00 288.00 0.00 11.24 4.72
764.00 288.00 0.00 11.24 4.72
765.00 288.00 0.00 11.24 4.72
766.00 288.00 0.00 11.24 4.72
767.00 288.00 0.00 11.24 4.72
768.00 288.00 0.00 11.24 4.72
769.00 288.00 0.00 11.24 4.72
770.00 288.00 0.00 11.24 4.72
771.00 288.00 0.00 11.24 4.72
772.00 288.00 0.00 11.24 4.72
773.00 288.00 0.00 11.24 4.72
774.00 288.00 0.00 11.24 4.72
775.00 288.00 0.00 11.24 4.72
776.00 288.00 0.00 11.24 4.72
777.00 288.00 0.00 11.24 4.72
778.00 288.00 0.00 11.24 4.72
779.00 288.00 0.00 11.24 4.72
780.00 288.00 0.00 11.24 4.72
781.00 288.00 0.00 11.24 4.72
782.00 288.00 0.00 11.24 4.72
783.00 288.00 0.00 11.24 4.72
784.00 288.00 0.00 11.24 4.72
785.00 288.00 0.00 11.24 4.72
786.00 288.00 0.00 11.24 4.72
787.00 288.00 0.00 11.24 4.72
788.00 288.00 0.00 11.24 4.72
789.00 288.00 0.00 11.24 4.72
790.00 288.00 0.00 11.24 4.72
791.00 288.00 0.00 11.24 4.72
792.00 288.00 0.00 11.24 4.72
793.00 288.00 0.00 11.24 4.72
794.00 288.00 0.00 11.24 4.72
795.00 288.00 0.00 11.24 4.72
796.00 288.00 0.00 11.24 4.72
797.00 288.00 0.00 11.24 4.72
798.00 288.00 0.00 11.24 4.72
799.00 288.00 0.00 11.24 4.72
800.00 288.00 0.00 11.24 4.72
801.00 288.00 0.00 11.24 4.72
802.00 288.00 0.00 11.24 4.72
803.00 288.00 0.00 11.24 4.72
804.00 288.00 0.00 11.24 4.72
805.00 288.00 0.00 11.24 4.72
806.00 288.00 0.00 11.24 4.72
807.00 288.00 0.00 11.24 4.72
808.00 288.00 0.00 11.24 4.72
809.00 288.00 0.00 11.24 4.72
810.00 288.00 0.00 11.24 4.72
811.00 288.00 0.00 11.24 4.72
812.00 288.00 0.00 11.24 4.72
813.00 288.00 0.00 11.24 4.72
814.00 288.00 0.00 11.24 4.72
815.00 288.00 0.00 11.24 4.72
816.00 288.00 0.00 11.24 4.72
817.00 288.00 0.00 11.24 4.72
818.00 288.00 0.00 11.24 4.72
819.00 288.00 0.00 11.24 4.72
820.00 288.00 0.00 11.24 4.72
821.00 288.00 0.00 11.24 4.72
822.00 288.00 0.00 11.24 4.72
823.00 288.00 0.00 11.24 4.72
824.00 288.00 0.00 11.24 4.72
825.00 288.00 0.00 11.24 4.72
826.00 288.00 0.00 11.24 4.72
827.00 288.00 0.00 11.24 4.72
828.00 288.00 0.00 11.24 4.72
829.00 288.00 0.00 11.24 4.72
830.00 288.00 0.00 11.24 4.72
831.00 288.00 0.00 11.24 4.72
