1000.00 288.00 00.00
0.00 288.00 0.00 -0.41 5.59
1.00 288.00 0.00 -0.41 5.59
2.00 288.00 0.00 -0.41 5.59
3.00 288.00 0.00 -0.41 5.59
4.00 288.00 0.00 -0.41 5.59
5.00 288.00 0.00 -0.41 5.59
6.00 288.00 0.00 -0.41 5.59
7.00 288.00 0.00 -0.41 5.59
8.00 288.00 0.00 -0.41 5.59
9.00 288.00 0.00 -0.41 5.59
10.00 288.00 0.00 -0.41 5.59
11.00 288.00 0.00 -0.41 5.59
12.00 288.00 0.00 -0.41 5.59
13.00 288.00 0.00 -0.41 5.59
14.00 288.00 0.00 -0.41 5.59
15.00 288.00 0.00 -0.41 5.59
16.00 288.00 0.00 -0.41 5.59
17.00 288.00 0.00 -0.41 5.59
18.00 288.00 0.00 -0.41 5.59
19.00 288.00 0.00 -0.41 5.59
20.00 288.00 0.00 -0.41 5.59
21.00 288.00 0.00 -0.41 5.59
22.00 288.00 0.00 -0.41 5.59
23.00 288.00 0.00 -0.41 5.59
24.00 288.00 0.00 -0.41 5.59
25.00 288.00 0.00 -0.41 5.59
26.00 288.00 0.00 -0.41 5.59
27.00 288.00 0.00 -0.41 5.59
28.00 288.00 0.00 -0.41 5.59
29.00 288.00 0.00 -0.41 5.59
30.00 288.00 0.00 -0.41 5.59
31.00 288.00 0.00 -0.41 5.59
32.00 288.00 0.00 -0.41 5.59
33.00 288.00 0.00 -0.41 5.59
34.00 288.00 0.00 -0.41 5.59
35.00 288.00 0.00 -0.41 5.59
36.00 288.00 0.00 -0.41 5.59
37.00 288.00 0.00 -0.41 5.59
38.00 288.00 0.00 -0.41 5.59
39.00 288.00 0.00 -0.41 5.59
40.00 288.00 0.00 -0.41 5.59
41.00 288.00 0.00 -0.41 5.59
42.00 288.00 0.00 -0.41 5.59
43.00 288.00 0.00 -0.41 5.59
44.00 288.00 0.00 -0.41 5.59
45.00 288.00 0.00 -0.41 5.59
46.00 288.00 0.00 -0.41 5.59
47.00 288.00 0.00 -0.41 5.59
48.00 288.00 0.00 -0.41 5.59
49.00 288.00 0.00 -0.41 5.59
50.00 288.00 0.00 -0.41 5.59
51.00 288.00 0.00 -0.41 5.59
52.00 288.00 0.00 -0.41 5.59
53.00 288.00 0.00 -0.41 5.59
54.00 288.00 0.00 -0.41 5.59
55.00 288.00 0.00 -0.41 5.59
56.00 288.00 0.00 -0.41 5.59
57.00 288.00 0.00 -0.41 5.59
58.00 288.00 0.00 -0.41 5.59
59.00 288.00 0.00 -0.41 5.59
60.00 288.00 0.00 -0.41 5.59
61.00 288.00 0.00 -0.41 5.59
62.00 288.00 0.00 -0.41 5.59
63.00 288.00 0.00 -0.41 5.59
64.00 288.00 0.00 -0.41 5.59
65.00 288.00 0.00 -0.41 5.59
66.00 288.00 0.00 -0.41 5.59
67.00 288.00 0.00 -0.41 5.59
68.00 288.00 0.00 -0.41 5.59
69.00 288.00 0.00 -0.41 5.59
70.00 288.00 0.00 -0.41 5.59
71.00 288.00 0.00 -0.41 5.59
72.00 288.00 0.00 -0.41 5.59
73.00 288.00 0.00 -0.41 5.59
74.00 288.00 0.00 -0.41 5.59
75.00 288.00 0.00 -0.41 5.59
76.00 288.00 0.00 -0.41 5.59
77.00 288.00 0.00 -0.41 5.59
78.00 288.00 0.00 -0.41 5.59
79.00 288.00 0.00 -0.41 5.59
80.00 288.00 0.00 -0.41 5.59
81.00 288.00 0.00 -0.41 5.58
82.00 288.00 0.00 -0.41 5.58
83.00 288.00 0.00 -0.41 5.58
84.00 288.00 0.00 -0.41 5.58
85.00 288.00 0.00 -0.40 5.58
86.00 288.00 0.00 -0.40 5.58
87.00 288.00 0.00 -0.40 5.58
88.00 288.00 0.00 -0.40 5.58
89.00 288.00 0.00 -0.40 5.58
90.00 288.00 0.00 -0.39 5.58
91.00 288.00 0.00 -0.39 5.57
92.00 288.00 0.00 -0.39 5.57
93.00 288.00 0.00 -0.39 5.57
94.00 288.00 0.00 -0.38 5.57
95.00 288.00 0.00 -0.38 5.57
96.00 288.00 0.00 -0.38 5.57
97.00 288.00 0.00 -0.37 5.56
98.00 288.00 0.00 -0.37 5.56
99.00 288.00 0.00 -0.36 5.56
100.00 288.00 0.00 -0.36 5.56
101.00 288.00 0.00 -0.35 5.55
102.00 288.00 0.00 -0.35 5.55
103.00 288.00 0.00 -0.34 5.55
104.00 288.00 0.00 -0.34 5.55
105.00 288.00 0.00 -0.33 5.54
106.00 288.00 0.00 -0.33 5.54
107.00 288.00 0.00 -0.32 5.54
108.00 288.00 0.00 -0.32 5.53
109.00 288.00 0.00 -0.31 5.53
110.00 288.00 0.00 -0.30 5.53
111.00 288.00 0.00 -0.30 5.52
112.00 288.00 0.00 -0.29 5.52
113.00 288.00 0.00 -0.28 5.52
114.00 288.00 0.00 -0.28 5.51
115.00 288.00 0.00 -0.27 5.51
116.00 288.00 0.00 -0.26 5.50
117.00 288.00 0.00 -0.25 5.50
118.00 288.00 0.00 -0.25 5.50
119.00 288.00 0.00 -0.24 5.49
120.00 288.00 0.00 -0.23 5.49
121.00 288.00 0.00 -0.22 5.48
122.00 288.00 0.00 -0.21 5.48
123.00 288.00 0.00 -0.20 5.47
124.00 288.00 0.00 -0.19 5.47
125.00 288.00 0.00 -0.19 5.46
126.00 288.00 0.00 -0.18 5.46
127.00 288.00 0.00 -0.17 5.45
128.00 288.00 0.00 -0.16 5.45
129.00 288.00 0.00 -0.15 5.44
130.00 288.00 0.00 -0.14 5.43
131.00 288.00 0.00 -0.13 5.43
132.00 288.00 0.00 -0.11 5.42
133.00 288.00 0.00 -0.10 5.42
134.00 288.00 0.00 -0.09 5.41
135.00 288.00 0.00 -0.08 5.40
136.00 288.00 0.00 -0.07 5.40
137.00 288.00 0.00 -0.06 5.39
138.00 288.00 0.00 -0.05 5.39
139.00 288.00 0.00 -0.04 5.38
140.00 288.00 0.00 -0.02 5.37
141.00 288.00 0.00 -0.01 5.36
142.00 288.00 0.00 0.00 5.36
143.00 288.00 0.00 0.01 5.35
144.00 288.00 0.00 0.03 5.34
145.00 288.00 0.00 0.04 5.34
146.00 288.00 0.00 0.05 5.33
147.00 288.00 0.00 0.07 5.32
148.00 288.00 0.00 0.08 5.31
149.00 288.00 0.00 0.10 5.30
150.00 288.00 0.00 0.11 5.30
151.00 288.00 0.00 0.12 5.29
152.00 288.00 0.00 0.14 5.28
153.00 288.00 0.00 0.15 5.27
154.00 288.00 0.00 0.17 5.26
155.00 288.00 0.00 0.18 5.25
156.00 288.00 0.00 0.20 5.24
157.00 288.00 0.00 0.21 5.24
158.00 288.00 0.00 0.23 5.23
159.00 288.00 0.00 0.25 5.22
160.00 288.00 0.00 0.26 5.21
161.00 288.00 0.00 0.28 5.20
162.00 288.00 0.00 0.29 5.19
163.00 288.00 0.00 0.31 5.18
164.00 288.00 0.00 0.33 5.17
165.00 288.00 0.00 0.35 5.16
166.00 288.00 0.00 0.36 5.15
167.00 288.00 0.00 0.38 5.14
168.00 288.00 0.00 0.40 5.13
169.00 288.00 0.00 0.42 5.12
170.00 288.00 0.00 0.43 5.11
171.00 288.00 0.00 0.45 5.10
172.00 288.00 0.00 0.47 5.08
173.00 288.00 0.00 0.49 5.07
174.00 288.00 0.00 0.51 5.06
175.00 288.00 0.00 0.53 5.05
176.00 288.00 0.00 0.55 5.04
177.00 288.00 0.00 0.57 5.03
178.00 288.00 0.00 0.58 5.01
179.00 288.00 0.00 0.60 5.00
180.00 288.00 0.00 0.62 4.99
181.00 288.00 0.00 0.64 4.98
182.00 288.00 0.00 0.67 4.96
183.00 288.00 0.00 0.69 4.95
184.00 288.00 0.00 0.71 4.94
185.00 288.00 0.00 0.73 4.93
186.00 288.00 0.00 0.75 4.91
187.00 288.00 0.00 0.77 4.90
188.00 288.00 0.00 0.79 4.89
189.00 288.00 0.00 0.81 4.87
190.00 288.00 0.00 0.84 4.86
191.00 288.00 0.00 0.86 4.84
192.00 288.00 0.00 0.88 4.83
193.00 288.00 0.00 0.90 4.82
194.00 288.00 0.00 0.92 4.80
195.00 288.00 0.00 0.95 4.79
196.00 288.00 0.00 0.97 4.77
197.00 288.00 0.00 0.99 4.76
198.00 288.00 0.00 1.02 4.74
199.00 288.00 0.00 1.04 4.73
200.00 288.00 0.00 1.07 4.71
201.00 288.00 0.00 1.09 4.70
202.00 288.00 0.00 1.11 4.68
203.00 288.00 0.00 1.14 4.66
204.00 288.00 0.00 1.16 4.65
205.00 288.00 0.00 1.19 4.63
206.00 288.00 0.00 1.21 4.62
207.00 288.00 0.00 1.24 4.60
208.00 288.00 0.00 1.26 4.58
209.00 288.00 0.00 1.29 4.56
210.00 288.00 0.00 1.31 4.55
211.00 288.00 0.00 1.34 4.53
212.00 288.00 0.00 1.37 4.51
213.00 288.00 0.00 1.39 4.50
214.00 288.00 0.00 1.42 4.48
215.00 288.00 0.00 1.45 4.46
216.00 288.00 0.00 1.47 4.44
217.00 288.00 0.00 1.50 4.42
218.00 288.00 0.00 1.53 4.40
219.00 288.00 0.00 1.56 4.39
220.00 288.00 0.00 1.58 4.37
221.00 288.00 0.00 1.61 4.35
222.00 288.00 0.00 1.64 4.33
223.00 288.00 0.00 1.67 4.31
224.00 288.00 0.00 1.70 4.29
225.00 288.00 0.00 1.73 4.27
226.00 288.00 0.00 1.75 4.25
227.00 288.00 0.00 1.78 4.23
228.00 288.00 0.00 1.81 4.21
229.00 288.00 0.00 1.84 4.19
230.00 288.00 0.00 1.87 4.17
231.00 288.00 0.00 1.90 4.14
232.00 288.00 0.00 1.93 4.12
233.00 288.00 0.00 1.96 4.10
234.00 288.00 0.00 1.99 4.08
235.00 288.00 0.00 2.02 4.06
236.00 288.00 0.00 2.05 4.04
237.00 288.00 0.00 2.09 4.01
238.00 288.00 0.00 2.12 3.99
239.00 288.00 0.00 2.15 3.97
240.00 288.00 0.00 2.18 3.95
241.00 288.00 0.00 2.21 3.92
242.00 288.00 0.00 2.24 3.90
243.00 288.00 0.00 2.28 3.88
244.00 288.00 0.00 2.31 3.85
245.00 288.00 0.00 2.34 3.83
246.00 288.00 0.00 2.37 3.81
247.00 288.00 0.00 2.41 3.78
248.00 288.00 0.00 2.44 3.76
249.00 288.00 0.00 2.47 3.73
250.00 288.00 0.00 2.51 3.71
251.00 288.00 0.00 2.54 3.68
252.00 288.00 0.00 2.57 3.66
253.00 288.00 0.00 2.61 3.63
254.00 288.00 0.00 2.64 3.60
255.00 288.00 0.00 2.68 3.58
256.00 288.00 0.00 2.71 3.55
257.00 288.00 0.00 2.75 3.53
258.00 288.00 0.00 2.78 3.50
259.00 288.00 0.00 2.82 3.47
260.00 288.00 0.00 2.85 3.45
261.00 288.00 0.00 2.89 3.42
262.00 288.00 0.00 2.92 3.39
263.00 288.00 0.00 2.96 3.37
264.00 288.00 0.00 2.99 3.34
265.00 288.00 0.00 3.03 3.31
266.00 288.00 0.00 3.06 3.29
267.00 288.00 0.00 3.10 3.26
268.00 288.00 0.00 3.13 3.23
269.00 288.00 0.00 3.17 3.21
270.00 288.00 0.00 3.20 3.18
271.00 288.00 0.00 3.24 3.15
272.00 288.00 0.00 3.27 3.12
273.00 288.00 0.00 3.31 3.10
274.00 288.00 0.00 3.34 3.07
275.00 288.00 0.00 3.38 3.04
276.00 288.00 0.00 3.41 3.01
277.00 288.00 0.00 3.45 2.99
278.00 288.00 0.00 3.48 2.96
279.00 288.00 0.00 3.52 2.93
280.00 288.00 0.00 3.55 2.90
281.00 288.00 0.00 3.59 2.88
282.00 288.00 0.00 3.62 2.85
283.00 288.00 0.00 3.66 2.82
284.00 288.00 0.00 3.69 2.79
285.00 288.00 0.00 3.73 2.76
286.00 288.00 0.00 3.76 2.74
287.00 288.00 0.00 3.80 2.71
288.00 288.00 0.00 3.83 2.68
289.00 288.00 0.00 3.87 2.65
290.00 288.00 0.00 3.90 2.62
291.00 288.00 0.00 3.94 2.59
292.00 288.00 0.00 3.97 2.57
293.00 288.00 0.00 4.01 2.54
294.00 288.00 0.00 4.04 2.51
295.00 288.00 0.00 4.08 2.48
296.00 288.00 0.00 4.11 2.45
297.00 288.00 0.00 4.15 2.42
298.00 288.00 0.00 4.18 2.39
299.00 288.00 0.00 4.22 2.37
300.00 288.00 0.00 4.25 2.34
301.00 288.00 0.00 4.29 2.31
302.00 288.00 0.00 4.32 2.28
303.00 288.00 0.00 4.36 2.25
304.00 288.00 0.00 4.39 2.22
305.00 288.00 0.00 4.43 2.19
306.00 288.00 0.00 4.46 2.16
307.00 288.00 0.00 4.50 2.13
308.00 288.00 0.00 4.53 2.10
309.00 288.00 0.00 4.57 2.08
310.00 288.00 0.00 4.60 2.05
311.00 288.00 0.00 4.64 2.02
312.00 288.00 0.00 4.67 1.99
313.00 288.00 0.00 4.71 1.96
314.00 288.00 0.00 4.74 1.93
315.00 288.00 0.00 4.78 1.90
316.00 288.00 0.00 4.81 1.87
317.00 288.00 0.00 4.85 1.84
318.00 288.00 0.00 4.88 1.81
319.00 288.00 0.00 4.92 1.78
320.00 288.00 0.00 4.95 1.75
321.00 288.00 0.00 4.99 1.72
322.00 288.00 0.00 5.02 1.69
323.00 288.00 0.00 5.06 1.66
324.00 288.00 0.00 5.09 1.63
325.00 288.00 0.00 5.13 1.60
326.00 288.00 0.00 5.16 1.57
327.00 288.00 0.00 5.20 1.54
328.00 288.00 0.00 5.23 1.52
329.00 288.00 0.00 5.27 1.49
330.00 288.00 0.00 5.30 1.46
331.00 288.00 0.00 5.34 1.43
332.00 288.00 0.00 5.37 1.40
333.00 288.00 0.00 5.41 1.37
334.00 288.00 0.00 5.44 1.34
335.00 288.00 0.00 5.48 1.31
336.00 288.00 0.00 5.51 1.28
337.00 288.00 0.00 5.55 1.25
338.00 288.00 0.00 5.58 1.22
339.00 288.00 0.00 5.62 1.19
340.00 288.00 0.00 5.65 1.16
341.00 288.00 0.00 5.69 1.13
342.00 288.00 0.00 5.72 1.10
343.00 288.00 0.00 5.76 1.06
344.00 288.00 0.00 5.79 1.03
345.00 288.00 0.00 5.83 1.00
346.00 288.00 0.00 5.86 0.97
347.00 288.00 0.00 5.90 0.94
348.00 288.00 0.00 5.93 0.91
349.00 288.00 0.00 5.97 0.88
350.00 288.00 0.00 6.00 0.85
351.00 288.00 0.00 6.04 0.82
352.00 288.00 0.00 6.07 0.79
353.00 288.00 0.00 6.11 0.76
354.00 288.00 0.00 6.14 0.73
355.00 288.00 0.00 6.18 0.70
356.00 288.00 0.00 6.21 0.67
357.00 288.00 0.00 6.25 0.64
358.00 288.00 0.00 6.28 0.61
359.00 288.00 0.00 6.32 0.58
360.00 288.00 0.00 6.35 0.55
361.00 288.00 0.00 6.39 0.52
362.00 288.00 0.00 6.42 0.49
363.00 288.00 0.00 6.46 0.46
364.00 288.00 0.00 6.49 0.43
365.00 288.00 0.00 6.53 0.40
366.00 288.00 0.00 6.56 0.37
367.00 288.00 0.00 6.60 0.34
368.00 288.00 0.00 6.63 0.31
369.00 288.00 0.00 6.67 0.27
370.00 288.00 0.00 6.70 0.24
371.00 288.00 0.00 6.74 0.21
372.00 288.00 0.00 6.77 0.18
373.00 288.00 0.00 6.81 0.15
374.00 288.00 0.00 6.84 0.12
375.00 288.00 0.00 6.88 0.09
376.00 288.00 0.00 6.91 0.06
377.00 288.00 0.00 6.95 0.03
378.00 288.00 0.00 6.98 0.00
379.00 288.00 0.00 7.02 -0.03
380.00 288.00 0.00 7.05 -0.06
381.00 288.00 0.00 7.09 -0.09
382.00 288.00 0.00 7.12 -0.12
383.00 288.00 0.00 7.16 -0.15
384.00 288.00 0.00 7.19 -0.18
385.00 288.00 0.00 7.23 -0.21
386.00 288.00 0.00 7.26 -0.24
387.00 288.00 0.00 7.30 -0.27
388.00 288.00 0.00 7.33 -0.31
389.00 288.00 0.00 7.37 -0.34
390.00 288.00 0.00 7.40 -0.37
391.00 288.00 0.00 7.44 -0.40
392.00 288.00 0.00 7.47 -0.43
393.00 288.00 0.00 7.51 -0.46
394.00 288.00 0.00 7.54 -0.49
395.00 288.00 0.00 7.58 -0.52
396.00 288.00 0.00 7.61 -0.55
397.00 288.00 0.00 7.65 -0.58
398.00 288.00 0.00 7.68 -0.61
399.00 288.00 0.00 7.72 -0.64
400.00 288.00 0.00 7.75 -0.67
401.00 288.00 0.00 7.79 -0.70
402.00 288.00 0.00 7.82 -0.73
403.00 288.00 0.00 7.86 -0.76
404.00 288.00 0.00 7.89 -0.79
405.00 288.00 0.00 7.93 -0.82
406.00 288.00 0.00 7.96 -0.85
407.00 288.00 0.00 8.00 -0.88
408.00 288.00 0.00 8.03 -0.91
409.00 288.00 0.00 8.07 -0.94
410.00 288.00 0.00 8.10 -0.97
411.00 288.00 0.00 8.14 -1.00
412.00 288.00 0.00 8.17 -1.03
413.00 288.00 0.00 8.21 -1.06
414.00 288.00 0.00 8.24 -1.10
415.00 288.00 0.00 8.28 -1.13
416.00 288.00 0.00 8.31 -1.16
417.00 288.00 0.00 8.35 -1.19
418.00 288.00 0.00 8.38 -1.22
419.00 288.00 0.00 8.42 -1.25
420.00 288.00 0.00 8.45 -1.28
421.00 288.00 0.00 8.49 -1.31
422.00 288.00 0.00 8.52 -1.34
423.00 288.00 0.00 8.56 -1.37
424.00 288.00 0.00 8.59 -1.40
425.00 288.00 0.00 8.63 -1.43
426.00 288.00 0.00 8.66 -1.46
427.00 288.00 0.00 8.70 -1.49
428.00 288.00 0.00 8.73 -1.52
429.00 288.00 0.00 8.77 -1.54
430.00 288.00 0.00 8.80 -1.57
431.00 288.00 0.00 8.84 -1.60
432.00 288.00 0.00 8.87 -1.63
433.00 288.00 0.00 8.91 -1.66
434.00 288.00 0.00 8.94 -1.69
435.00 288.00 0.00 8.98 -1.72
436.00 288.00 0.00 9.01 -1.75
437.00 288.00 0.00 9.05 -1.78
438.00 288.00 0.00 9.08 -1.81
439.00 288.00 0.00 9.12 -1.84
440.00 288.00 0.00 9.15 -1.87
441.00 288.00 0.00 9.19 -1.90
442.00 288.00 0.00 9.22 -1.93
443.00 288.00 0.00 9.26 -1.96
444.00 288.00 0.00 9.29 -1.99
445.00 288.00 0.00 9.33 -2.02
446.00 288.00 0.00 9.36 -2.05
447.00 288.00 0.00 9.40 -2.08
448.00 288.00 0.00 9.43 -2.10
449.00 288.00 0.00 9.47 -2.13
450.00 288.00 0.00 9.50 -2.16
451.00 288.00 0.00 9.54 -2.19
452.00 288.00 0.00 9.57 -2.22
453.00 288.00 0.00 9.61 -2.25
454.00 288.00 0.00 9.64 -2.28
455.00 288.00 0.00 9.68 -2.31
456.00 288.00 0.00 9.71 -2.34
457.00 288.00 0.00 9.75 -2.37
458.00 288.00 0.00 9.78 -2.39
459.00 288.00 0.00 9.82 -2.42
460.00 288.00 0.00 9.85 -2.45
461.00 288.00 0.00 9.89 -2.48
462.00 288.00 0.00 9.92 -2.51
463.00 288.00 0.00 9.96 -2.54
464.00 288.00 0.00 9.99 -2.57
465.00 288.00 0.00 10.03 -2.59
466.00 288.00 0.00 10.06 -2.62
467.00 288.00 0.00 10.10 -2.65
468.00 288.00 0.00 10.13 -2.68
469.00 288.00 0.00 10.17 -2.71
470.00 288.00 0.00 10.20 -2.74
471.00 288.00 0.00 10.24 -2.76
472.00 288.00 0.00 10.27 -2.79
473.00 288.00 0.00 10.31 -2.82
474.00 288.00 0.00 10.34 -2.85
475.00 288.00 0.00 10.38 -2.88
476.00 288.00 0.00 10.41 -2.90
477.00 288.00 0.00 10.45 -2.93
478.00 288.00 0.00 10.48 -2.96
479.00 288.00 0.00 10.52 -2.99
480.00 288.00 0.00 10.55 -3.01
481.00 288.00 0.00 10.59 -3.04
482.00 288.00 0.00 10.62 -3.07
483.00 288.00 0.00 10.66 -3.10
484.00 288.00 0.00 10.69 -3.12
485.00 288.00 0.00 10.73 -3.15
486.00 288.00 0.00 10.76 -3.18
487.00 288.00 0.00 10.80 -3.21
488.00 288.00 0.00 10.83 -3.23
489.00 288.00 0.00 10.87 -3.26
490.00 288.00 0.00 10.90 -3.29
491.00 288.00 0.00 10.94 -3.31
492.00 288.00 0.00 10.97 -3.34
493.00 288.00 0.00 11.01 -3.37
494.00 288.00 0.00 11.04 -3.39
495.00 288.00 0.00 11.08 -3.42
496.00 288.00 0.00 11.11 -3.45
497.00 288.00 0.00 11.15 -3.47
498.00 288.00 0.00 11.18 -3.50
499.00 288.00 0.00 11.22 -3.53
500.00 288.00 0.00 11.25 -3.55
501.00 288.00 0.00 11.29 -3.58
502.00 288.00 0.00 11.32 -3.60
503.00 288.00 0.00 11.36 -3.63
504.00 288.00 0.00 11.39 -3.66
505.00 288.00 0.00 11.43 -3.68
506.00 288.00 0.00 11.46 -3.71
507.00 288.00 0.00 11.49 -3.73
508.00 288.00 0.00 11.53 -3.76
509.00 288.00 0.00 11.56 -3.78
510.00 288.00 0.00 11.59 -3.81
511.00 288.00 0.00 11.63 -3.83
512.00 288.00 0.00 11.66 -3.85
513.00 288.00 0.00 11.69 -3.88
514.00 288.00 0.00 11.72 -3.90
515.00 288.00 0.00 11.76 -3.92
516.00 288.00 0.00 11.79 -3.95
517.00 288.00 0.00 11.82 -3.97
518.00 288.00 0.00 11.85 -3.99
519.00 288.00 0.00 11.88 -4.01
520.00 288.00 0.00 11.91 -4.04
521.00 288.00 0.00 11.95 -4.06
522.00 288.00 0.00 11.98 -4.08
523.00 288.00 0.00 12.01 -4.10
524.00 288.00 0.00 12.04 -4.12
525.00 288.00 0.00 12.07 -4.14
526.00 288.00 0.00 12.10 -4.17
527.00 288.00 0.00 12.13 -4.19
528.00 288.00 0.00 12.16 -4.21
529.00 288.00 0.00 12.19 -4.23
530.00 288.00 0.00 12.22 -4.25
531.00 288.00 0.00 12.25 -4.27
532.00 288.00 0.00 12.27 -4.29
533.00 288.00 0.00 12.30 -4.31
534.00 288.00 0.00 12.33 -4.33
535.00 288.00 0.00 12.36 -4.35
536.00 288.00 0.00 12.39 -4.37
537.00 288.00 0.00 12.42 -4.39
538.00 288.00 0.00 12.44 -4.40
539.00 288.00 0.00 12.47 -4.42
540.00 288.00 0.00 12.50 -4.44
541.00 288.00 0.00 12.53 -4.46
542.00 288.00 0.00 12.55 -4.48
543.00 288.00 0.00 12.58 -4.50
544.00 288.00 0.00 12.61 -4.51
545.00 288.00 0.00 12.63 -4.53
546.00 288.00 0.00 12.66 -4.55
547.00 288.00 0.00 12.69 -4.56
548.00 288.00 0.00 12.71 -4.58
549.00 288.00 0.00 12.74 -4.60
550.00 288.00 0.00 12.76 -4.62
551.00 288.00 0.00 12.79 -4.63
552.00 288.00 0.00 12.81 -4.65
553.00 288.00 0.00 12.84 -4.66
554.00 288.00 0.00 12.86 -4.68
555.00 288.00 0.00 12.89 -4.70
556.00 288.00 0.00 12.91 -4.71
557.00 288.00 0.00 12.93 -4.73
558.00 288.00 0.00 12.96 -4.74
559.00 288.00 0.00 12.98 -4.76
560.00 288.00 0.00 13.01 -4.77
561.00 288.00 0.00 13.03 -4.79
562.00 288.00 0.00 13.05 -4.80
563.00 288.00 0.00 13.08 -4.82
564.00 288.00 0.00 13.10 -4.83
565.00 288.00 0.00 13.12 -4.84
566.00 288.00 0.00 13.14 -4.86
567.00 288.00 0.00 13.16 -4.87
568.00 288.00 0.00 13.19 -4.89
569.00 288.00 0.00 13.21 -4.90
570.00 288.00 0.00 13.23 -4.91
571.00 288.00 0.00 13.25 -4.93
572.00 288.00 0.00 13.27 -4.94
573.00 288.00 0.00 13.29 -4.95
574.00 288.00 0.00 13.31 -4.96
575.00 288.00 0.00 13.33 -4.98
576.00 288.00 0.00 13.36 -4.99
577.00 288.00 0.00 13.38 -5.00
578.00 288.00 0.00 13.40 -5.01
579.00 288.00 0.00 13.42 -5.03
580.00 288.00 0.00 13.43 -5.04
581.00 288.00 0.00 13.45 -5.05
582.00 288.00 0.00 13.47 -5.06
583.00 288.00 0.00 13.49 -5.07
584.00 288.00 0.00 13.51 -5.08
585.00 288.00 0.00 13.53 -5.10
586.00 288.00 0.00 13.55 -5.11
587.00 288.00 0.00 13.57 -5.12
588.00 288.00 0.00 13.58 -5.13
589.00 288.00 0.00 13.60 -5.14
590.00 288.00 0.00 13.62 -5.15
591.00 288.00 0.00 13.64 -5.16
592.00 288.00 0.00 13.65 -5.17
593.00 288.00 0.00 13.67 -5.18
594.00 288.00 0.00 13.69 -5.19
595.00 288.00 0.00 13.71 -5.20
596.00 288.00 0.00 13.72 -5.21
597.00 288.00 0.00 13.74 -5.22
598.00 288.00 0.00 13.75 -5.23
599.00 288.00 0.00 13.77 -5.24
600.00 288.00 0.00 13.79 -5.24
601.00 288.00 0.00 13.80 -5.25
602.00 288.00 0.00 13.82 -5.26
603.00 288.00 0.00 13.83 -5.27
604.00 288.00 0.00 13.85 -5.28
605.00 288.00 0.00 13.86 -5.29
606.00 288.00 0.00 13.88 -5.30
607.00 288.00 0.00 13.89 -5.30
608.00 288.00 0.00 13.90 -5.31
609.00 288.00 0.00 13.92 -5.32
610.00 288.00 0.00 13.93 -5.33
611.00 288.00 0.00 13.95 -5.34
612.00 288.00 0.00 13.96 -5.34
613.00 288.00 0.00 13.97 -5.35
614.00 288.00 0.00 13.99 -5.36
615.00 288.00 0.00 14.00 -5.36
616.00 288.00 0.00 14.01 -5.37
617.00 288.00 0.00 14.02 -5.38
618.00 288.00 0.00 14.04 -5.39
619.00 288.00 0.00 14.05 -5.39
620.00 288.00 0.00 14.06 -5.40
621.00 288.00 0.00 14.07 -5.40
622.00 288.00 0.00 14.08 -5.41
623.00 288.00 0.00 14.09 -5.42
624.00 288.00 0.00 14.10 -5.42
625.00 288.00 0.00 14.11 -5.43
626.00 288.00 0.00 14.13 -5.43
627.00 288.00 0.00 14.14 -5.44
628.00 288.00 0.00 14.15 -5.45
629.00 288.00 0.00 14.16 -5.45
630.00 288.00 0.00 14.17 -5.46
631.00 288.00 0.00 14.18 -5.46
632.00 288.00 0.00 14.19 -5.47
633.00 288.00 0.00 14.19 -5.47
634.00 288.00 0.00 14.20 -5.48
635.00 288.00 0.00 14.21 -5.48
636.00 288.00 0.00 14.22 -5.49
637.00 288.00 0.00 14.23 -5.49
638.00 288.00 0.00 14.24 -5.50
639.00 288.00 0.00 14.25 -5.50
640.00 288.00 0.00 14.25 -5.50
641.00 288.00 0.00 14.26 -5.51
642.00 288.00 0.00 14.27 -5.51
643.00 288.00 0.00 14.28 -5.52
644.00 288.00 0.00 14.28 -5.52
645.00 288.00 0.00 14.29 -5.52
646.00 288.00 0.00 14.30 -5.53
647.00 288.00 0.00 14.30 -5.53
648.00 288.00 0.00 14.31 -5.53
649.00 288.00 0.00 14.32 -5.54
650.00 288.00 0.00 14.32 -5.54
651.00 288.00 0.00 14.33 -5.54
652.00 288.00 0.00 14.33 -5.55
653.00 288.00 0.00 14.34 -5.55
654.00 288.00 0.00 14.34 -5.55
655.00 288.00 0.00 14.35 -5.55
656.00 288.00 0.00 14.35 -5.56
657.00 288.00 0.00 14.36 -5.56
658.00 288.00 0.00 14.36 -5.56
659.00 288.00 0.00 14.37 -5.56
660.00 288.00 0.00 14.37 -5.57
661.00 288.00 0.00 14.38 -5.57
662.00 288.00 0.00 14.38 -5.57
663.00 288.00 0.00 14.38 -5.57
664.00 288.00 0.00 14.39 -5.57
665.00 288.00 0.00 14.39 -5.57
666.00 288.00 0.00 14.39 -5.58
667.00 288.00 0.00 14.39 -5.58
668.00 288.00 0.00 14.40 -5.58
669.00 288.00 0.00 14.40 -5.58
670.00 288.00 0.00 14.40 -5.58
671.00 288.00 0.00 14.40 -5.58
672.00 288.00 0.00 14.40 -5.58
673.00 288.00 0.00 14.41 -5.58
674.00 288.00 0.00 14.41 -5.58
675.00 288.00 0.00 14.41 -5.58
676.00 288.00 0.00 14.41 -5.59
677.00 288.00 0.00 14.41 -5.59
678.00 288.00 0.00 14.41 -5.59
679.00 288.00 0.00 14.41 -5.59
680.00 288.00 0.00 14.41 -5.59
681.00 288.00 0.00 14.41 -5.59
682.00 288.00 0.00 14.41 -5.59
683.00 288.00 0.00 14.41 -5.59
684.00 288.00 0.00 14.41 -5.59
685.00 288.00 0.00 14.41 -5.59
686.00 288.00 0.00 14.41 -5.59
687.00 288.00 0.00 14.41 -5.59
688.00 288.00 0.00 14.41 -5.59
689.00 288.00 0.00 14.41 -5.59
690.00 288.00 0.00 14.41 -5.59
691.00 288.00 0.00 14.41 -5.59
692.00 288.00 0.00 14.41 -5.59
693.00 288.00 0.00 14.41 -5.59
694.00 288.00 0.00 14.41 -5.59
695.00 288.00 0.00 14.41 -5.59
696.00 288.00 0.00 14.41 -5.59
697.00 288.00 0.00 14.41 -5.59
698.00 288.00 0.00 14.41 -5.59
699.00 288.00 0.00 14.41 -5.59
700.00 288.00 0.00 14.41 -5.59
701.00 288.00 0.00 14.41 -5.59
702.00 288.00 0.00 14.41 -5.59
703.00 288.00 0.00 14.41 -5.59
704.00 288.00 0.00 14.41 -5.59
705.00 288.00 0.00 14.41 -5.59
706.00 288.00 0.00 14.41 -5.59
707.00 288.00 0.00 14.41 -5.59
708.00 288.00 0.00 14.41 -5.59
709.00 288.00 0.00 14.41 -5.59
710.00 288.00 0.00 14.41 -5.59
711.00 288.00 0.00 14.41 -5.59
712.00 288.00 0.00 14.41 -5.59
713.00 288.00 0.00 14.41 -5.59
714.00 288.00 0.00 14.41 -5.59
715.00 288.00 0.00 14.41 -5.59
716.00 288.00 0.00 14.41 -5.59
717.00 288.00 0.00 14.41 -5.59
718.00 288.00 0.00 14.41 -5.59
719.00 288.00 0.00 14.41 -5.59
720.00 288.00 0.00 14.41 -5.59
721.00 288.00 0.00 14.41 -5.59
722.00 288.00 0.00 14.41 -5.59
723.00 288.00 0.00 14.41 -5.59
724.00 288.00 0.00 14.41 -5.59
725.00 288.00 0.00 14.41 -5.59
726.00 288.00 0.00 14.41 -5.59
727.00 288.00 0.00 14.41 -5.59
728.00 288.00 0.00 14.41 -5.59
729.00 288.00 0.00 14.41 -5.59
730.00 288.00 0.00 14.41 -5.59
731.00 288.00 0.00 14.41 -5.59
732.00 288.00 0.00 14.41 -5.59
733.00 288.00 0.00 14.41 -5.59
734.00 288.00 0.00 14.41 -5.59
735.00 288.00 0.00 14.41 -5.59
736.00 288.00 0.00 14.41 -5.59
737.00 288.00 0.00 14.41 -5.59
738.00 288.00 0.00 14.41 -5.59
739.00 288.00 0.00 14.41 -5.59
740.00 288.00 0.00 14.41 -5.59
741.00 288.00 0.00 14.41 -5.59
742.00 288.00 0.00 14.41 -5.59
743.00 288.00 0.00 14.41 -5.59
744.00 288.00 0.00 14.41 -5.59
745.00 288.00 0.00 14.41 -5.59
746.00 288.00 0.00 14.41 -5.59
747.00 288.00 0.00 14.41 -5.59
748.00 288.00 0.00 14.41 -5.59
749.00 288.00 0.00 14.41 -5.59
750.00 288.00 0.00 14.41 -5.59
751.00 288.00 0.00 14.41 -5.59
752.00 288.00 0.00 14.41 -5.59
753.00 288.00 0.00 14.41 -5.59
754.00 288.00 0.00 14.41 -5.59
755.00 288.00 0.00 14.41 -5.59
756.00 288.00 0.00 14.41 -5.59
757.00 288.00 0.00 14.41 -5.59
758.00 288.00 0.00 14.41 -5.59
759.00 288.00 0.00 14.41 -5.59
760.00 288.00 0.00 14.41 -5.59
761.00 288.00 0.00 14.41 -5.59
762.00 288.00 0.00 14.41 -5.59
763.00 288.00 0.00 14.41 -5.59
764.00 288.00 0.00 14.41 -5.59
765.00 288.00 0.00 14.41 -5.59
766.00 288.00 0.00 14.41 -5.59
767.00 288.00 0.00 14.41 -5.59
768.00 288.00 0.00 14.41 -5.59
769.00 288.00 0.00 14.41 -5.59
770.00 288.00 0.00 14.41 -5.59
771.00 288.00 0.00 14.41 -5.59
772.00 288.00 0.00 14.41 -5.59
773.00 288.00 0.00 14.41 -5.59
774.00 288.00 0.00 14.41 -5.59
775.00 288.00 0.00 14.41 -5.59
776.00 288.00 0.00 14.41 -5.59
777.00 288.00 0.00 14.41 -5.59
778.00 288.00 0.00 14.41 -5.59
779.00 288.00 0.00 14.41 -5.59
780.00 288.00 0.00 14.41 -5.59
781.00 288.00 0.00 14.41 -5.59
782.00 288.00 0.00 14.41 -5.59
783.00 288.00 0.00 14.41 -5.59
784.00 288.00 0.00 14.41 -5.59
785.00 288.00 0.00 14.41 -5.59
786.00 288.00 0.00 14.41 -5.59
787.00 288.00 0.00 14.41 -5.59
788.00 288.00 0.00 14.41 -5.59
789.00 288.00 0.00 14.41 -5.59
790.00 288.00 0.00 14.41 -5.59
791.00 288.00 0.00 14.41 -5.59
792.00 288.00 0.00 14.41 -5.59
793.00 288.00 0.00 14.41 -5.59
794.00 288.00 0.00 14.41 -5.59
795.00 288.00 0.00 14.41 -5.59
796.00 288.00 0.00 14.41 -5.59
797.00 288.00 0.00 14.41 -5.59
798.00 288.00 0.00 14.41 -5.59
799.00 288.00 0.00 14.41 -5.59
800.00 288.00 0.00 14.41 -5.59
801.00 288.00 0.00 14.41 -5.59
802.00 288.00 0.00 14.41 -5.59
803.00 288.00 0.00 14.41 -5.59
804.00 288.00 0.00 14.41 -5.59
805.00 288.00 0.00 14.41 -5.59
806.00 288.00 0.00 14.41 -5.59
807.00 288.00 0.00 14.41 -5.59
808.00 288.00 0.00 14.41 -5.59
809.00 288.00 0.00 14.41 -5.59
810.00 288.00 0.00 14.41 -5.59
811.00 288.00 0.00 14.41 -5.59
812.00 288.00 0.00 14.41 -5.59
813.00 288.00 0.00 14.41 -5.59
814.00 288.00 0.00 14.41 -5.59
815.00 288.00 0.00 14.41 -5.59
816.00 288.00 0.00 14.41 -5.59
817.00 288.00 0.00 14.41 -5.59
818.00 288.00 0.00 14.41 -5.59
819.00 288.00 0.00 14.41 -5.59
820.00 288.00 0.00 14.41 -5.59
821.00 288.00 0.00 14.41 -5.59
822.00 288.00 0.00 14.41 -5.59
823.00 288.00 0.00 14.41 -5.59
824.00 288.00 0.00 14.41 -5.59
825.00 288.00 0.00 14.41 -5.59
826.00 288.00 0.00 14.41 -5.59
827.00 288.00 0.00 14.41 -5.59
828.00 288.00 0.00 14.41 -5.59
829.00 288.00 0.00 14.41 -5.59
830.00 288.00 0.00 14.41 -5.59
831.00 288.00 0.00 14.41 -5.59
