1000.00 288.00 00.00
0.00 288.00 0.00 7.00 2.24
1.00 288.00 0.00 7.00 2.24
2.00 288.00 0.00 7.00 2.24
3.00 288.00 0.00 7.00 2.24
4.00 288.00 0.00 7.00 2.24
5.00 288.00 0.00 7.00 2.24
6.00 288.00 0.00 7.00 2.24
7.00 288.00 0.00 7.00 2.24
8.00 288.00 0.00 7.00 2.24
9.00 288.00 0.00 7.00 2.24
10.00 288.00 0.00 7.00 2.24
11.00 288.00 0.00 7.00 2.24
12.00 288.00 0.00 7.00 2.24
13.00 288.00 0.00 7.00 2.24
14.00 288.00 0.00 7.00 2.24
15.00 288.00 0.00 7.00 2.24
16.00 288.00 0.00 7.00 2.24
17.00 288.00 0.00 7.00 2.24
18.00 288.00 0.00 7.00 2.24
19.00 288.00 0.00 7.00 2.24
20.00 288.00 0.00 7.00 2.24
21.00 288.00 0.00 7.00 2.24
22.00 288.00 0.00 7.00 2.24
23.00 288.00 0.00 7.00 2.24
24.00 288.00 0.00 7.00 2.24
25.00 288.00 0.00 7.00 2.24
26.00 288.00 0.00 7.00 2.24
27.00 288.00 0.00 7.00 2.24
28.00 288.00 0.00 7.00 2.24
29.00 288.00 0.00 7.00 2.24
30.00 288.00 0.00 7.00 2.24
31.00 288.00 0.00 7.00 2.24
32.00 288.00 0.00 7.00 2.24
33.00 288.00 0.00 7.00 2.24
34.00 288.00 0.00 7.00 2.24
35.00 288.00 0.00 7.00 2.24
36.00 288.00 0.00 7.00 2.24
37.00 288.00 0.00 7.00 2.24
38.00 288.00 0.00 7.00 2.24
39.00 288.00 0.00 7.00 2.24
40.00 288.00 0.00 7.00 2.24
41.00 288.00 0.00 7.00 2.24
42.00 288.00 0.00 7.00 2.24
43.00 288.00 0.00 7.00 2.24
44.00 288.00 0.00 7.00 2.24
45.00 288.00 0.00 7.00 2.24
46.00 288.00 0.00 7.00 2.24
47.00 288.00 0.00 7.00 2.24
48.00 288.00 0.00 7.00 2.24
49.00 288.00 0.00 7.00 2.23
50.00 288.00 0.00 7.00 2.23
51.00 288.00 0.00 7.00 2.23
52.00 288.00 0.00 7.00 2.23
53.00 288.00 0.00 7.00 2.23
54.00 288.00 0.00 7.00 2.23
55.00 288.00 0.00 7.00 2.23
56.00 288.00 0.00 7.00 2.23
57.00 288.00 0.00 7.00 2.23
58.00 288.00 0.00 7.00 2.23
59.00 288.00 0.00 7.00 2.23
60.00 288.00 0.00 7.00 2.23
61.00 288.00 0.00 7.00 2.23
62.00 288.00 0.00 7.00 2.22
63.00 288.00 0.00 7.00 2.22
64.00 288.00 0.00 7.00 2.22
65.00 288.00 0.00 7.00 2.22
66.00 288.00 0.00 7.00 2.22
67.00 288.00 0.00 7.00 2.22
68.00 288.00 0.00 7.00 2.22
69.00 288.00 0.00 7.00 2.22
70.00 288.00 0.00 7.00 2.21
71.00 288.00 0.00 7.00 2.21
72.00 288.00 0.00 7.00 2.21
73.00 288.00 0.00 7.00 2.21
74.00 288.00 0.00 7.00 2.21
75.00 288.00 0.00 7.00 2.21
76.00 288.00 0.00 7.00 2.20
77.00 288.00 0.00 7.00 2.20
78.00 288.00 0.00 7.00 2.20
79.00 288.00 0.00 7.00 2.20
80.00 288.00 0.00 7.00 2.20
81.00 288.00 0.00 7.00 2.20
82.00 288.00 0.00 7.00 2.19
83.00 288.00 0.00 7.00 2.19
84.00 288.00 0.00 7.00 2.19
85.00 288.00 0.00 7.00 2.19
86.00 288.00 0.00 7.00 2.18
87.00 288.00 0.00 7.00 2.18
88.00 288.00 0.00 7.00 2.18
89.00 288.00 0.00 7.00 2.18
90.00 288.00 0.00 7.00 2.18
91.00 288.00 0.00 7.00 2.17
92.00 288.00 0.00 7.00 2.17
93.00 288.00 0.00 7.00 2.17
94.00 288.00 0.00 7.00 2.17
95.00 288.00 0.00 7.00 2.16
96.00 288.00 0.00 7.00 2.16
97.00 288.00 0.00 7.00 2.16
98.00 288.00 0.00 7.00 2.15
99.00 288.00 0.00 7.00 2.15
100.00 288.00 0.00 7.00 2.15
101.00 288.00 0.00 7.00 2.15
102.00 288.00 0.00 7.00 2.14
103.00 288.00 0.00 7.00 2.14
104.00 288.00 0.00 7.00 2.14
105.00 288.00 0.00 7.00 2.13
106.00 288.00 0.00 7.00 2.13
107.00 288.00 0.00 7.00 2.13
108.00 288.00 0.00 7.00 2.12
109.00 288.00 0.00 7.00 2.12
110.00 288.00 0.00 7.00 2.12
111.00 288.00 0.00 7.00 2.11
112.00 288.00 0.00 7.00 2.11
113.00 288.00 0.00 7.00 2.11
114.00 288.00 0.00 7.00 2.10
115.00 288.00 0.00 7.00 2.10
116.00 288.00 0.00 7.00 2.10
117.00 288.00 0.00 7.00 2.09
118.00 288.00 0.00 7.00 2.09
119.00 288.00 0.00 7.00 2.08
120.00 288.00 0.00 7.00 2.08
121.00 288.00 0.00 7.00 2.08
122.00 288.00 0.00 7.00 2.07
123.00 288.00 0.00 7.00 2.07
124.00 288.00 0.00 7.00 2.06
125.00 288.00 0.00 7.00 2.06
126.00 288.00 0.00 7.00 2.06
127.00 288.00 0.00 7.00 2.05
128.00 288.00 0.00 7.00 2.05
129.00 288.00 0.00 7.00 2.04
130.00 288.00 0.00 7.00 2.04
131.00 288.00 0.00 7.00 2.03
132.00 288.00 0.00 7.00 2.03
133.00 288.00 0.00 7.00 2.03
134.00 288.00 0.00 7.00 2.02
135.00 288.00 0.00 7.00 2.02
136.00 288.00 0.00 7.00 2.01
137.00 288.00 0.00 7.00 2.01
138.00 288.00 0.00 7.00 2.00
139.00 288.00 0.00 7.00 2.00
140.00 288.00 0.00 7.00 1.99
141.00 288.00 0.00 7.00 1.99
142.00 288.00 0.00 7.00 1.98
143.00 288.00 0.00 7.00 1.98
144.00 288.00 0.00 7.00 1.97
145.00 288.00 0.00 7.00 1.97
146.00 288.00 0.00 7.00 1.96
147.00 288.00 0.00 7.00 1.96
148.00 288.00 0.00 7.00 1.95
149.00 288.00 0.00 7.00 1.95
150.00 288.00 0.00 7.00 1.94
151.00 288.00 0.00 7.00 1.94
152.00 288.00 0.00 7.00 1.93
153.00 288.00 0.00 7.00 1.92
154.00 288.00 0.00 7.00 1.92
155.00 288.00 0.00 7.00 1.91
156.00 288.00 0.00 7.00 1.91
157.00 288.00 0.00 7.00 1.90
158.00 288.00 0.00 7.00 1.90
159.00 288.00 0.00 7.00 1.89
160.00 288.00 0.00 7.00 1.88
161.00 288.00 0.00 7.00 1.88
162.00 288.00 0.00 7.00 1.87
163.00 288.00 0.00 7.00 1.87
164.00 288.00 0.00 7.00 1.86
165.00 288.00 0.00 7.00 1.85
166.00 288.00 0.00 7.00 1.85
167.00 288.00 0.00 7.00 1.84
168.00 288.00 0.00 7.00 1.84
169.00 288.00 0.00 7.00 1.83
170.00 288.00 0.00 7.00 1.82
171.00 288.00 0.00 7.00 1.82
172.00 288.00 0.00 7.00 1.81
173.00 288.00 0.00 7.00 1.80
174.00 288.00 0.00 7.00 1.80
175.00 288.00 0.00 7.00 1.79
176.00 288.00 0.00 7.00 1.78
177.00 288.00 0.00 7.00 1.78
178.00 288.00 0.00 7.00 1.77
179.00 288.00 0.00 7.00 1.76
180.00 288.00 0.00 7.00 1.76
181.00 288.00 0.00 7.00 1.75
182.00 288.00 0.00 7.00 1.74
183.00 288.00 0.00 7.00 1.73
184.00 288.00 0.00 7.00 1.73
185.00 288.00 0.00 7.00 1.72
186.00 288.00 0.00 7.00 1.71
187.00 288.00 0.00 7.00 1.71
188.00 288.00 0.00 7.00 1.70
189.00 288.00 0.00 7.00 1.69
190.00 288.00 0.00 7.00 1.68
191.00 288.00 0.00 7.00 1.68
192.00 288.00 0.00 7.00 1.67
193.00 288.00 0.00 7.00 1.66
194.00 288.00 0.00 7.00 1.65
195.00 288.00 0.00 7.00 1.65
196.00 288.00 0.00 7.00 1.64
197.00 288.00 0.00 7.00 1.63
198.00 288.00 0.00 7.00 1.62
199.00 288.00 0.00 7.00 1.61
200.00 288.00 0.00 7.00 1.61
201.00 288.00 0.00 7.00 1.60
202.00 288.00 0.00 7.00 1.59
203.00 288.00 0.00 7.00 1.58
204.00 288.00 0.00 7.00 1.57
205.00 288.00 0.00 7.00 1.57
206.00 288.00 0.00 7.00 1.56
207.00 288.00 0.00 7.00 1.55
208.00 288.00 0.00 7.00 1.54
209.00 288.00 0.00 7.00 1.53
210.00 288.00 0.00 7.00 1.52
211.00 288.00 0.00 7.00 1.52
212.00 288.00 0.00 7.00 1.51
213.00 288.00 0.00 7.00 1.50
214.00 288.00 0.00 7.00 1.49
215.00 288.00 0.00 7.00 1.48
216.00 288.00 0.00 7.00 1.47
217.00 288.00 0.00 7.00 1.46
218.00 288.00 0.00 7.00 1.46
219.00 288.00 0.00 7.00 1.45
220.00 288.00 0.00 7.00 1.44
221.00 288.00 0.00 7.00 1.43
222.00 288.00 0.00 7.00 1.42
223.00 288.00 0.00 7.00 1.41
224.00 288.00 0.00 7.00 1.40
225.00 288.00 0.00 7.00 1.39
226.00 288.00 0.00 7.00 1.38
227.00 288.00 0.00 7.00 1.37
228.00 288.00 0.00 7.00 1.37
229.00 288.00 0.00 7.00 1.36
230.00 288.00 0.00 7.00 1.35
231.00 288.00 0.00 7.00 1.34
232.00 288.00 0.00 7.00 1.33
233.00 288.00 0.00 7.00 1.32
234.00 288.00 0.00 7.00 1.31
235.00 288.00 0.00 7.00 1.30
236.00 288.00 0.00 7.00 1.29
237.00 288.00 0.00 7.00 1.28
238.00 288.00 0.00 7.00 1.28
239.00 288.00 0.00 7.00 1.27
240.00 288.00 0.00 7.00 1.26
241.00 288.00 0.00 7.00 1.25
242.00 288.00 0.00 7.00 1.24
243.00 288.00 0.00 7.00 1.23
244.00 288.00 0.00 7.00 1.22
245.00 288.00 0.00 7.00 1.21
246.00 288.00 0.00 7.00 1.20
247.00 288.00 0.00 7.00 1.19
248.00 288.00 0.00 7.00 1.19
249.00 288.00 0.00 7.00 1.18
250.00 288.00 0.00 7.00 1.17
251.00 288.00 0.00 7.00 1.16
252.00 288.00 0.00 7.00 1.15
253.00 288.00 0.00 7.00 1.14
254.00 288.00 0.00 7.00 1.13
255.00 288.00 0.00 7.00 1.12
256.00 288.00 0.00 7.00 1.11
257.00 288.00 0.00 7.00 1.10
258.00 288.00 0.00 7.00 1.10
259.00 288.00 0.00 7.00 1.09
260.00 288.00 0.00 7.00 1.08
261.00 288.00 0.00 7.00 1.07
262.00 288.00 0.00 7.00 1.06
263.00 288.00 0.00 7.00 1.05
264.00 288.00 0.00 7.00 1.04
265.00 288.00 0.00 7.00 1.03
266.00 288.00 0.00 7.00 1.02
267.00 288.00 0.00 7.00 1.01
268.00 288.00 0.00 7.00 1.00
269.00 288.00 0.00 7.00 1.00
270.00 288.00 0.00 7.00 0.99
271.00 288.00 0.00 7.00 0.98
272.00 288.00 0.00 7.00 0.97
273.00 288.00 0.00 7.00 0.96
274.00 288.00 0.00 7.00 0.95
275.00 288.00 0.00 7.00 0.94
276.00 288.00 0.00 7.00 0.93
277.00 288.00 0.00 7.00 0.92
278.00 288.00 0.00 7.00 0.91
279.00 288.00 0.00 7.00 0.90
280.00 288.00 0.00 7.00 0.90
281.00 288.00 0.00 7.00 0.89
282.00 288.00 0.00 7.00 0.88
283.00 288.00 0.00 7.00 0.87
284.00 288.00 0.00 7.00 0.86
285.00 288.00 0.00 7.00 0.85
286.00 288.00 0.00 7.00 0.84
287.00 288.00 0.00 7.00 0.83
288.00 288.00 0.00 7.00 0.82
289.00 288.00 0.00 7.00 0.81
290.00 288.00 0.00 7.00 0.80
291.00 288.00 0.00 7.00 0.80
292.00 288.00 0.00 7.00 0.79
293.00 288.00 0.00 7.00 0.78
294.00 288.00 0.00 7.00 0.77
295.00 288.00 0.00 7.00 0.76
296.00 288.00 0.00 7.00 0.75
297.00 288.00 0.00 7.00 0.74
298.00 288.00 0.00 7.00 0.73
299.00 288.00 0.00 7.00 0.72
300.00 288.00 0.00 7.00 0.71
301.00 288.00 0.00 7.00 0.70
302.00 288.00 0.00 7.00 0.70
303.00 288.00 0.00 7.00 0.69
304.00 288.00 0.00 7.00 0.68
305.00 288.00 0.00 7.00 0.67
306.00 288.00 0.00 7.00 0.66
307.00 288.00 0.00 7.00 0.65
308.00 288.00 0.00 7.00 0.64
309.00 288.00 0.00 7.00 0.63
310.00 288.00 0.00 7.00 0.62
311.00 288.00 0.00 7.00 0.61
312.00 288.00 0.00 7.00 0.60
313.00 288.00 0.00 7.00 0.59
314.00 288.00 0.00 7.00 0.59
315.00 288.00 0.00 7.00 0.58
316.00 288.00 0.00 7.00 0.57
317.00 288.00 0.00 7.00 0.56
318.00 288.00 0.00 7.00 0.55
319.00 288.00 0.00 7.00 0.54
320.00 288.00 0.00 7.00 0.53
321.00 288.00 0.00 7.00 0.52
322.00 288.00 0.00 7.00 0.51
323.00 288.00 0.00 7.00 0.50
324.00 288.00 0.00 7.00 0.49
325.00 288.00 0.00 7.00 0.49
326.00 288.00 0.00 7.00 0.48
327.00 288.00 0.00 7.00 0.47
328.00 288.00 0.00 7.00 0.46
329.00 288.00 0.00 7.00 0.45
330.00 288.00 0.00 7.00 0.44
331.00 288.00 0.00 7.00 0.43
332.00 288.00 0.00 7.00 0.42
333.00 288.00 0.00 7.00 0.41
334.00 288.00 0.00 7.00 0.40
335.00 288.00 0.00 7.00 0.39
336.00 288.00 0.00 7.00 0.38
337.00 288.00 0.00 7.00 0.38
338.00 288.00 0.00 7.00 0.37
339.00 288.00 0.00 7.00 0.36
340.00 288.00 0.00 7.00 0.35
341.00 288.00 0.00 7.00 0.34
342.00 288.00 0.00 7.00 0.33
343.00 288.00 0.00 7.00 0.32
344.00 288.00 0.00 7.00 0.31
345.00 288.00 0.00 7.00 0.30
346.00 288.00 0.00 7.00 0.29
347.00 288.00 0.00 7.00 0.28
348.00 288.00 0.00 7.00 0.27
349.00 288.00 0.00 7.00 0.27
350.00 288.00 0.00 7.00 0.26
351.00 288.00 0.00 7.00 0.25
352.00 288.00 0.00 7.00 0.24
353.00 288.00 0.00 7.00 0.23
354.00 288.00 0.00 7.00 0.22
355.00 288.00 0.00 7.00 0.21
356.00 288.00 0.00 7.00 0.20
357.00 288.00 0.00 7.00 0.19
358.00 288.00 0.00 7.00 0.18
359.00 288.00 0.00 7.00 0.17
360.00 288.00 0.00 7.00 0.16
361.00 288.00 0.00 7.00 0.16
362.00 288.00 0.00 7.00 0.15
363.00 288.00 0.00 7.00 0.14
364.00 288.00 0.00 7.00 0.13
365.00 288.00 0.00 7.00 0.12
366.00 288.00 0.00 7.00 0.11
367.00 288.00 0.00 7.00 0.10
368.00 288.00 0.00 7.00 0.09
369.00 288.00 0.00 7.00 0.08
370.00 288.00 0.00 7.00 0.07
371.00 288.00 0.00 7.00 0.06
372.00 288.00 0.00 7.00 0.05
373.00 288.00 0.00 7.00 0.05
374.00 288.00 0.00 7.00 0.04
375.00 288.00 0.00 7.00 0.03
376.00 288.00 0.00 7.00 0.02
377.00 288.00 0.00 7.00 0.01
378.00 288.00 0.00 7.00 -0.00
379.00 288.00 0.00 7.00 -0.01
380.00 288.00 0.00 7.00 -0.02
381.00 288.00 0.00 7.00 -0.03
382.00 288.00 0.00 7.00 -0.04
383.00 288.00 0.00 7.00 -0.05
384.00 288.00 0.00 7.00 -0.05
385.00 288.00 0.00 7.00 -0.06
386.00 288.00 0.00 7.00 -0.07
387.00 288.00 0.00 7.00 -0.08
388.00 288.00 0.00 7.00 -0.09
389.00 288.00 0.00 7.00 -0.10
390.00 288.00 0.00 7.00 -0.11
391.00 288.00 0.00 7.00 -0.12
392.00 288.00 0.00 7.00 -0.13
393.00 288.00 0.00 7.00 -0.14
394.00 288.00 0.00 7.00 -0.15
395.00 288.00 0.00 7.00 -0.16
396.00 288.00 0.00 7.00 -0.16
397.00 288.00 0.00 7.00 -0.17
398.00 288.00 0.00 7.00 -0.18
399.00 288.00 0.00 7.00 -0.19
400.00 288.00 0.00 7.00 -0.20
401.00 288.00 0.00 7.00 -0.21
402.00 288.00 0.00 7.00 -0.22
403.00 288.00 0.00 7.00 -0.23
404.00 288.00 0.00 7.00 -0.24
405.00 288.00 0.00 7.00 -0.25
406.00 288.00 0.00 7.00 -0.26
407.00 288.00 0.00 7.00 -0.27
408.00 288.00 0.00 7.00 -0.27
409.00 288.00 0.00 7.00 -0.28
410.00 288.00 0.00 7.00 -0.29
411.00 288.00 0.00 7.00 -0.30
412.00 288.00 0.00 7.00 -0.31
413.00 288.00 0.00 7.00 -0.32
414.00 288.00 0.00 7.00 -0.33
415.00 288.00 0.00 7.00 -0.34
416.00 288.00 0.00 7.00 -0.35
417.00 288.00 0.00 7.00 -0.36
418.00 288.00 0.00 7.00 -0.37
419.00 288.00 0.00 7.00 -0.38
420.00 288.00 0.00 7.00 -0.38
421.00 288.00 0.00 7.00 -0.39
422.00 288.00 0.00 7.00 -0.40
423.00 288.00 0.00 7.00 -0.41
424.00 288.00 0.00 7.00 -0.42
425.00 288.00 0.00 7.00 -0.43
426.00 288.00 0.00 7.00 -0.44
427.00 288.00 0.00 7.00 -0.45
428.00 288.00 0.00 7.00 -0.46
429.00 288.00 0.00 7.00 -0.47
430.00 288.00 0.00 7.00 -0.48
431.00 288.00 0.00 7.00 -0.49
432.00 288.00 0.00 7.00 -0.49
433.00 288.00 0.00 7.00 -0.50
434.00 288.00 0.00 7.00 -0.51
435.00 288.00 0.00 7.00 -0.52
436.00 288.00 0.00 7.00 -0.53
437.00 288.00 0.00 7.00 -0.54
438.00 288.00 0.00 7.00 -0.55
439.00 288.00 0.00 7.00 -0.56
440.00 288.00 0.00 7.00 -0.57
441.00 288.00 0.00 7.00 -0.58
442.00 288.00 0.00 7.00 -0.59
443.00 288.00 0.00 7.00 -0.59
444.00 288.00 0.00 7.00 -0.60
445.00 288.00 0.00 7.00 -0.61
446.00 288.00 0.00 7.00 -0.62
447.00 288.00 0.00 7.00 -0.63
448.00 288.00 0.00 7.00 -0.64
449.00 288.00 0.00 7.00 -0.65
450.00 288.00 0.00 7.00 -0.66
451.00 288.00 0.00 7.00 -0.67
452.00 288.00 0.00 7.00 -0.68
453.00 288.00 0.00 7.00 -0.69
454.00 288.00 0.00 7.00 -0.70
455.00 288.00 0.00 7.00 -0.70
456.00 288.00 0.00 7.00 -0.71
457.00 288.00 0.00 7.00 -0.72
458.00 288.00 0.00 7.00 -0.73
459.00 288.00 0.00 7.00 -0.74
460.00 288.00 0.00 7.00 -0.75
461.00 288.00 0.00 7.00 -0.76
462.00 288.00 0.00 7.00 -0.77
463.00 288.00 0.00 7.00 -0.78
464.00 288.00 0.00 7.00 -0.79
465.00 288.00 0.00 7.00 -0.80
466.00 288.00 0.00 7.00 -0.80
467.00 288.00 0.00 7.00 -0.81
468.00 288.00 0.00 7.00 -0.82
469.00 288.00 0.00 7.00 -0.83
470.00 288.00 0.00 7.00 -0.84
471.00 288.00 0.00 7.00 -0.85
472.00 288.00 0.00 7.00 -0.86
473.00 288.00 0.00 7.00 -0.87
474.00 288.00 0.00 7.00 -0.88
475.00 288.00 0.00 7.00 -0.89
476.00 288.00 0.00 7.00 -0.90
477.00 288.00 0.00 7.00 -0.90
478.00 288.00 0.00 7.00 -0.91
479.00 288.00 0.00 7.00 -0.92
480.00 288.00 0.00 7.00 -0.93
481.00 288.00 0.00 7.00 -0.94
482.00 288.00 0.00 7.00 -0.95
483.00 288.00 0.00 7.00 -0.96
484.00 288.00 0.00 7.00 -0.97
485.00 288.00 0.00 7.00 -0.98
486.00 288.00 0.00 7.00 -0.99
487.00 288.00 0.00 7.00 -1.00
488.00 288.00 0.00 7.00 -1.00
489.00 288.00 0.00 7.00 -1.01
490.00 288.00 0.00 7.00 -1.02
491.00 288.00 0.00 7.00 -1.03
492.00 288.00 0.00 7.00 -1.04
493.00 288.00 0.00 7.00 -1.05
494.00 288.00 0.00 7.00 -1.06
495.00 288.00 0.00 7.00 -1.07
496.00 288.00 0.00 7.00 -1.08
497.00 288.00 0.00 7.00 -1.09
498.00 288.00 0.00 7.00 -1.10
499.00 288.00 0.00 7.00 -1.10
500.00 288.00 0.00 7.00 -1.11
501.00 288.00 0.00 7.00 -1.12
502.00 288.00 0.00 7.00 -1.13
503.00 288.00 0.00 7.00 -1.14
504.00 288.00 0.00 7.00 -1.15
505.00 288.00 0.00 7.00 -1.16
506.00 288.00 0.00 7.00 -1.17
507.00 288.00 0.00 7.00 -1.18
508.00 288.00 0.00 7.00 -1.19
509.00 288.00 0.00 7.00 -1.19
510.00 288.00 0.00 7.00 -1.20
511.00 288.00 0.00 7.00 -1.21
512.00 288.00 0.00 7.00 -1.22
513.00 288.00 0.00 7.00 -1.23
514.00 288.00 0.00 7.00 -1.24
515.00 288.00 0.00 7.00 -1.25
516.00 288.00 0.00 7.00 -1.26
517.00 288.00 0.00 7.00 -1.27
518.00 288.00 0.00 7.00 -1.28
519.00 288.00 0.00 7.00 -1.28
520.00 288.00 0.00 7.00 -1.29
521.00 288.00 0.00 7.00 -1.30
522.00 288.00 0.00 7.00 -1.31
523.00 288.00 0.00 7.00 -1.32
524.00 288.00 0.00 7.00 -1.33
525.00 288.00 0.00 7.00 -1.34
526.00 288.00 0.00 7.00 -1.35
527.00 288.00 0.00 7.00 -1.36
528.00 288.00 0.00 7.00 -1.37
529.00 288.00 0.00 7.00 -1.37
530.00 288.00 0.00 7.00 -1.38
531.00 288.00 0.00 7.00 -1.39
532.00 288.00 0.00 7.00 -1.40
533.00 288.00 0.00 7.00 -1.41
534.00 288.00 0.00 7.00 -1.42
535.00 288.00 0.00 7.00 -1.43
536.00 288.00 0.00 7.00 -1.44
537.00 288.00 0.00 7.00 -1.45
538.00 288.00 0.00 7.00 -1.46
539.00 288.00 0.00 7.00 -1.46
540.00 288.00 0.00 7.00 -1.47
541.00 288.00 0.00 7.00 -1.48
542.00 288.00 0.00 7.00 -1.49
543.00 288.00 0.00 7.00 -1.50
544.00 288.00 0.00 7.00 -1.51
545.00 288.00 0.00 7.00 -1.52
546.00 288.00 0.00 7.00 -1.52
547.00 288.00 0.00 7.00 -1.53
548.00 288.00 0.00 7.00 -1.54
549.00 288.00 0.00 7.00 -1.55
550.00 288.00 0.00 7.00 -1.56
551.00 288.00 0.00 7.00 -1.57
552.00 288.00 0.00 7.00 -1.57
553.00 288.00 0.00 7.00 -1.58
554.00 288.00 0.00 7.00 -1.59
555.00 288.00 0.00 7.00 -1.60
556.00 288.00 0.00 7.00 -1.61
557.00 288.00 0.00 7.00 -1.61
558.00 288.00 0.00 7.00 -1.62
559.00 288.00 0.00 7.00 -1.63
560.00 288.00 0.00 7.00 -1.64
561.00 288.00 0.00 7.00 -1.65
562.00 288.00 0.00 7.00 -1.65
563.00 288.00 0.00 7.00 -1.66
564.00 288.00 0.00 7.00 -1.67
565.00 288.00 0.00 7.00 -1.68
566.00 288.00 0.00 7.00 -1.68
567.00 288.00 0.00 7.00 -1.69
568.00 288.00 0.00 7.00 -1.70
569.00 288.00 0.00 7.00 -1.71
570.00 288.00 0.00 7.00 -1.71
571.00 288.00 0.00 7.00 -1.72
572.00 288.00 0.00 7.00 -1.73
573.00 288.00 0.00 7.00 -1.73
574.00 288.00 0.00 7.00 -1.74
575.00 288.00 0.00 7.00 -1.75
576.00 288.00 0.00 7.00 -1.76
577.00 288.00 0.00 7.00 -1.76
578.00 288.00 0.00 7.00 -1.77
579.00 288.00 0.00 7.00 -1.78
580.00 288.00 0.00 7.00 -1.78
581.00 288.00 0.00 7.00 -1.79
582.00 288.00 0.00 7.00 -1.80
583.00 288.00 0.00 7.00 -1.80
584.00 288.00 0.00 7.00 -1.81
585.00 288.00 0.00 7.00 -1.82
586.00 288.00 0.00 7.00 -1.82
587.00 288.00 0.00 7.00 -1.83
588.00 288.00 0.00 7.00 -1.84
589.00 288.00 0.00 7.00 -1.84
590.00 288.00 0.00 7.00 -1.85
591.00 288.00 0.00 7.00 -1.85
592.00 288.00 0.00 7.00 -1.86
593.00 288.00 0.00 7.00 -1.87
594.00 288.00 0.00 7.00 -1.87
595.00 288.00 0.00 7.00 -1.88
596.00 288.00 0.00 7.00 -1.88
597.00 288.00 0.00 7.00 -1.89
598.00 288.00 0.00 7.00 -1.90
599.00 288.00 0.00 7.00 -1.90
600.00 288.00 0.00 7.00 -1.91
601.00 288.00 0.00 7.00 -1.91
602.00 288.00 0.00 7.00 -1.92
603.00 288.00 0.00 7.00 -1.92
604.00 288.00 0.00 7.00 -1.93
605.00 288.00 0.00 7.00 -1.94
606.00 288.00 0.00 7.00 -1.94
607.00 288.00 0.00 7.00 -1.95
608.00 288.00 0.00 7.00 -1.95
609.00 288.00 0.00 7.00 -1.96
610.00 288.00 0.00 7.00 -1.96
611.00 288.00 0.00 7.00 -1.97
612.00 288.00 0.00 7.00 -1.97
613.00 288.00 0.00 7.00 -1.98
614.00 288.00 0.00 7.00 -1.98
615.00 288.00 0.00 7.00 -1.99
616.00 288.00 0.00 7.00 -1.99
617.00 288.00 0.00 7.00 -2.00
618.00 288.00 0.00 7.00 -2.00
619.00 288.00 0.00 7.00 -2.01
620.00 288.00 0.00 7.00 -2.01
621.00 288.00 0.00 7.00 -2.02
622.00 288.00 0.00 7.00 -2.02
623.00 288.00 0.00 7.00 -2.03
624.00 288.00 0.00 7.00 -2.03
625.00 288.00 0.00 7.00 -2.03
626.00 288.00 0.00 7.00 -2.04
627.00 288.00 0.00 7.00 -2.04
628.00 288.00 0.00 7.00 -2.05
629.00 288.00 0.00 7.00 -2.05
630.00 288.00 0.00 7.00 -2.06
631.00 288.00 0.00 7.00 -2.06
632.00 288.00 0.00 7.00 -2.06
633.00 288.00 0.00 7.00 -2.07
634.00 288.00 0.00 7.00 -2.07
635.00 288.00 0.00 7.00 -2.08
636.00 288.00 0.00 7.00 -2.08
637.00 288.00 0.00 7.00 -2.08
638.00 288.00 0.00 7.00 -2.09
639.00 288.00 0.00 7.00 -2.09
640.00 288.00 0.00 7.00 -2.10
641.00 288.00 0.00 7.00 -2.10
642.00 288.00 0.00 7.00 -2.10
643.00 288.00 0.00 7.00 -2.11
644.00 288.00 0.00 7.00 -2.11
645.00 288.00 0.00 7.00 -2.11
646.00 288.00 0.00 7.00 -2.12
647.00 288.00 0.00 7.00 -2.12
648.00 288.00 0.00 7.00 -2.12
649.00 288.00 0.00 7.00 -2.13
650.00 288.00 0.00 7.00 -2.13
651.00 288.00 0.00 7.00 -2.13
652.00 288.00 0.00 7.00 -2.14
653.00 288.00 0.00 7.00 -2.14
654.00 288.00 0.00 7.00 -2.14
655.00 288.00 0.00 7.00 -2.15
656.00 288.00 0.00 7.00 -2.15
657.00 288.00 0.00 7.00 -2.15
658.00 288.00 0.00 7.00 -2.15
659.00 288.00 0.00 7.00 -2.16
660.00 288.00 0.00 7.00 -2.16
661.00 288.00 0.00 7.00 -2.16
662.00 288.00 0.00 7.00 -2.17
663.00 288.00 0.00 7.00 -2.17
664.00 288.00 0.00 7.00 -2.17
665.00 288.00 0.00 7.00 -2.17
666.00 288.00 0.00 7.00 -2.18
667.00 288.00 0.00 7.00 -2.18
668.00 288.00 0.00 7.00 -2.18
669.00 288.00 0.00 7.00 -2.18
670.00 288.00 0.00 7.00 -2.18
671.00 288.00 0.00 7.00 -2.19
672.00 288.00 0.00 7.00 -2.19
673.00 288.00 0.00 7.00 -2.19
674.00 288.00 0.00 7.00 -2.19
675.00 288.00 0.00 7.00 -2.20
676.00 288.00 0.00 7.00 -2.20
677.00 288.00 0.00 7.00 -2.20
678.00 288.00 0.00 7.00 -2.20
679.00 288.00 0.00 7.00 -2.20
680.00 288.00 0.00 7.00 -2.20
681.00 288.00 0.00 7.00 -2.21
682.00 288.00 0.00 7.00 -2.21
683.00 288.00 0.00 7.00 -2.21
684.00 288.00 0.00 7.00 -2.21
685.00 288.00 0.00 7.00 -2.21
686.00 288.00 0.00 7.00 -2.21
687.00 288.00 0.00 7.00 -2.22
688.00 288.00 0.00 7.00 -2.22
689.00 288.00 0.00 7.00 -2.22
690.00 288.00 0.00 7.00 -2.22
691.00 288.00 0.00 7.00 -2.22
692.00 288.00 0.00 7.00 -2.22
693.00 288.00 0.00 7.00 -2.22
694.00 288.00 0.00 7.00 -2.22
695.00 288.00 0.00 7.00 -2.23
696.00 288.00 0.00 7.00 -2.23
697.00 288.00 0.00 7.00 -2.23
698.00 288.00 0.00 7.00 -2.23
699.00 288.00 0.00 7.00 -2.23
700.00 288.00 0.00 7.00 -2.23
701.00 288.00 0.00 7.00 -2.23
702.00 288.00 0.00 7.00 -2.23
703.00 288.00 0.00 7.00 -2.23
704.00 288.00 0.00 7.00 -2.23
705.00 288.00 0.00 7.00 -2.23
706.00 288.00 0.00 7.00 -2.23
707.00 288.00 0.00 7.00 -2.23
708.00 288.00 0.00 7.00 -2.24
709.00 288.00 0.00 7.00 -2.24
710.00 288.00 0.00 7.00 -2.24
711.00 288.00 0.00 7.00 -2.24
712.00 288.00 0.00 7.00 -2.24
713.00 288.00 0.00 7.00 -2.24
714.00 288.00 0.00 7.00 -2.24
715.00 288.00 0.00 7.00 -2.24
716.00 288.00 0.00 7.00 -2.24
717.00 288.00 0.00 7.00 -2.24
718.00 288.00 0.00 7.00 -2.24
719.00 288.00 0.00 7.00 -2.24
720.00 288.00 0.00 7.00 -2.24
721.00 288.00 0.00 7.00 -2.24
722.00 288.00 0.00 7.00 -2.24
723.00 288.00 0.00 7.00 -2.24
724.00 288.00 0.00 7.00 -2.24
725.00 288.00 0.00 7.00 -2.24
726.00 288.00 0.00 7.00 -2.24
727.00 288.00 0.00 7.00 -2.24
728.00 288.00 0.00 7.00 -2.24
729.00 288.00 0.00 7.00 -2.24
730.00 288.00 0.00 7.00 -2.24
731.00 288.00 0.00 7.00 -2.24
732.00 288.00 0.00 7.00 -2.24
733.00 288.00 0.00 7.00 -2.24
734.00 288.00 0.00 7.00 -2.24
735.00 288.00 0.00 7.00 -2.24
736.00 288.00 0.00 7.00 -2.24
737.00 288.00 0.00 7.00 -2.24
738.00 288.00 0.00 7.00 -2.24
739.00 288.00 0.00 7.00 -2.24
740.00 288.00 0.00 7.00 -2.24
741.00 288.00 0.00 7.00 -2.24
742.00 288.00 0.00 7.00 -2.24
743.00 288.00 0.00 7.00 -2.24
744.00 288.00 0.00 7.00 -2.24
745.00 288.00 0.00 7.00 -2.24
746.00 288.00 0.00 7.00 -2.24
747.00 288.00 0.00 7.00 -2.24
748.00 288.00 0.00 7.00 -2.24
749.00 288.00 0.00 7.00 -2.24
750.00 288.00 0.00 7.00 -2.24
751.00 288.00 0.00 7.00 -2.24
752.00 288.00 0.00 7.00 -2.24
753.00 288.00 0.00 7.00 -2.24
754.00 288.00 0.00 7.00 -2.24
755.00 288.00 0.00 7.00 -2.24
756.00 288.00 0.00 7.00 -2.24
757.00 288.00 0.00 7.00 -2.24
758.00 288.00 0.00 7.00 -2.24
759.00 288.00 0.00 7.00 -2.24
760.00 288.00 0.00 7.00 -2.24
761.00 288.00 0.00 7.00 -2.24
762.00 288.00 0.00 7.00 -2.24
763.00 288.00 0.00 7.00 -2.24
764.00 288.00 0.00 7.00 -2.24
765.00 288.00 0.00 7.00 -2.24
766.00 288.00 0.00 7.00 -2.24
767.00 288.00 0.00 7.00 -2.24
768.00 288.00 0.00 7.00 -2.24
769.00 288.00 0.00 7.00 -2.24
770.00 288.00 0.00 7.00 -2.24
771.00 288.00 0.00 7.00 -2.24
772.00 288.00 0.00 7.00 -2.24
773.00 288.00 0.00 7.00 -2.24
774.00 288.00 0.00 7.00 -2.24
775.00 288.00 0.00 7.00 -2.24
776.00 288.00 0.00 7.00 -2.24
777.00 288.00 0.00 7.00 -2.24
778.00 288.00 0.00 7.00 -2.24
779.00 288.00 0.00 7.00 -2.24
780.00 288.00 0.00 7.00 -2.24
781.00 288.00 0.00 7.00 -2.24
782.00 288.00 0.00 7.00 -2.24
783.00 288.00 0.00 7.00 -2.24
784.00 288.00 0.00 7.00 -2.24
785.00 288.00 0.00 7.00 -2.24
786.00 288.00 0.00 7.00 -2.24
787.00 288.00 0.00 7.00 -2.24
788.00 288.00 0.00 7.00 -2.24
789.00 288.00 0.00 7.00 -2.24
790.00 288.00 0.00 7.00 -2.24
791.00 288.00 0.00 7.00 -2.24
792.00 288.00 0.00 7.00 -2.24
793.00 288.00 0.00 7.00 -2.24
794.00 288.00 0.00 7.00 -2.24
795.00 288.00 0.00 7.00 -2.24
796.00 288.00 0.00 7.00 -2.24
797.00 288.00 0.00 7.00 -2.24
798.00 288.00 0.00 7.00 -2.24
799.00 288.00 0.00 7.00 -2.24
800.00 288.00 0.00 7.00 -2.24
801.00 288.00 0.00 7.00 -2.24
802.00 288.00 0.00 7.00 -2.24
803.00 288.00 0.00 7.00 -2.24
804.00 288.00 0.00 7.00 -2.24
805.00 288.00 0.00 7.00 -2.24
806.00 288.00 0.00 7.00 -2.24
807.00 288.00 0.00 7.00 -2.24
808.00 288.00 0.00 7.00 -2.24
809.00 288.00 0.00 7.00 -2.24
810.00 288.00 0.00 7.00 -2.24
811.00 288.00 0.00 7.00 -2.24
812.00 288.00 0.00 7.00 -2.24
813.00 288.00 0.00 7.00 -2.24
814.00 288.00 0.00 7.00 -2.24
815.00 288.00 0.00 7.00 -2.24
816.00 288.00 0.00 7.00 -2.24
817.00 288.00 0.00 7.00 -2.24
818.00 288.00 0.00 7.00 -2.24
819.00 288.00 0.00 7.00 -2.24
820.00 288.00 0.00 7.00 -2.24
821.00 288.00 0.00 7.00 -2.24
822.00 288.00 0.00 7.00 -2.24
823.00 288.00 0.00 7.00 -2.24
824.00 288.00 0.00 7.00 -2.24
825.00 288.00 0.00 7.00 -2.24
826.00 288.00 0.00 7.00 -2.24
827.00 288.00 0.00 7.00 -2.24
828.00 288.00 0.00 7.00 -2.24
829.00 288.00 0.00 7.00 -2.24
830.00 288.00 0.00 7.00 -2.24
831.00 288.00 0.00 7.00 -2.24
