1000.00 288.00 00.00
0.00 288.00 0.00 2.65 0.21
1.00 288.00 0.00 2.65 0.21
2.00 288.00 0.00 2.65 0.21
3.00 288.00 0.00 2.65 0.21
4.00 288.00 0.00 2.65 0.21
5.00 288.00 0.00 2.65 0.21
6.00 288.00 0.00 2.65 0.21
7.00 288.00 0.00 2.65 0.21
8.00 288.00 0.00 2.65 0.21
9.00 288.00 0.00 2.65 0.21
10.00 288.00 0.00 2.65 0.21
11.00 288.00 0.00 2.65 0.21
12.00 288.00 0.00 2.65 0.21
13.00 288.00 0.00 2.65 0.21
14.00 288.00 0.00 2.65 0.21
15.00 288.00 0.00 2.65 0.21
16.00 288.00 0.00 2.65 0.21
17.00 288.00 0.00 2.65 0.21
18.00 288.00 0.00 2.65 0.21
19.00 288.00 0.00 2.65 0.21
20.00 288.00 0.00 2.65 0.21
21.00 288.00 0.00 2.65 0.21
22.00 288.00 0.00 2.65 0.21
23.00 288.00 0.00 2.65 0.21
24.00 288.00 0.00 2.65 0.21
25.00 288.00 0.00 2.65 0.21
26.00 288.00 0.00 2.65 0.21
27.00 288.00 0.00 2.65 0.21
28.00 288.00 0.00 2.65 0.21
29.00 288.00 0.00 2.65 0.21
30.00 288.00 0.00 2.65 0.21
31.00 288.00 0.00 2.65 0.21
32.00 288.00 0.00 2.65 0.21
33.00 288.00 0.00 2.65 0.21
34.00 288.00 0.00 2.65 0.21
35.00 288.00 0.00 2.65 0.21
36.00 288.00 0.00 2.65 0.21
37.00 288.00 0.00 2.65 0.21
38.00 288.00 0.00 2.65 0.21
39.00 288.00 0.00 2.65 0.21
40.00 288.00 0.00 2.65 0.21
41.00 288.00 0.00 2.65 0.21
42.00 288.00 0.00 2.65 0.21
43.00 288.00 0.00 2.65 0.21
44.00 288.00 0.00 2.65 0.21
45.00 288.00 0.00 2.65 0.21
46.00 288.00 0.00 2.65 0.21
47.00 288.00 0.00 2.65 0.21
48.00 288.00 0.00 2.65 0.21
49.00 288.00 0.00 2.65 0.21
50.00 288.00 0.00 2.65 0.21
51.00 288.00 0.00 2.65 0.21
52.00 288.00 0.00 2.65 0.21
53.00 288.00 0.00 2.65 0.21
54.00 288.00 0.00 2.65 0.21
55.00 288.00 0.00 2.65 0.21
56.00 288.00 0.00 2.65 0.21
57.00 288.00 0.00 2.65 0.21
58.00 288.00 0.00 2.65 0.21
59.00 288.00 0.00 2.65 0.21
60.00 288.00 0.00 2.65 0.21
61.00 288.00 0.00 2.65 0.21
62.00 288.00 0.00 2.65 0.21
63.00 288.00 0.00 2.65 0.21
64.00 288.00 0.00 2.65 0.21
65.00 288.00 0.00 2.65 0.21
66.00 288.00 0.00 2.65 0.21
67.00 288.00 0.00 2.65 0.21
68.00 288.00 0.00 2.65 0.21
69.00 288.00 0.00 2.65 0.21
70.00 288.00 0.00 2.65 0.21
71.00 288.00 0.00 2.65 0.21
72.00 288.00 0.00 2.65 0.21
73.00 288.00 0.00 2.65 0.21
74.00 288.00 0.00 2.65 0.21
75.00 288.00 0.00 2.65 0.21
76.00 288.00 0.00 2.65 0.21
77.00 288.00 0.00 2.65 0.21
78.00 288.00 0.00 2.65 0.21
79.00 288.00 0.00 2.65 0.21
80.00 288.00 0.00 2.65 0.21
81.00 288.00 0.00 2.65 0.21
82.00 288.00 0.00 2.65 0.21
83.00 288.00 0.00 2.65 0.21
84.00 288.00 0.00 2.65 0.21
85.00 288.00 0.00 2.65 0.21
86.00 288.00 0.00 2.65 0.21
87.00 288.00 0.00 2.65 0.21
88.00 288.00 0.00 2.65 0.21
89.00 288.00 0.00 2.65 0.21
90.00 288.00 0.00 2.65 0.21
91.00 288.00 0.00 2.65 0.21
92.00 288.00 0.00 2.65 0.21
93.00 288.00 0.00 2.65 0.21
94.00 288.00 0.00 2.65 0.21
95.00 288.00 0.00 2.65 0.21
96.00 288.00 0.00 2.65 0.21
97.00 288.00 0.00 2.65 0.21
98.00 288.00 0.00 2.65 0.21
99.00 288.00 0.00 2.65 0.21
100.00 288.00 0.00 2.65 0.21
101.00 288.00 0.00 2.65 0.21
102.00 288.00 0.00 2.65 0.21
103.00 288.00 0.00 2.65 0.21
104.00 288.00 0.00 2.65 0.21
105.00 288.00 0.00 2.65 0.21
106.00 288.00 0.00 2.65 0.21
107.00 288.00 0.00 2.65 0.21
108.00 288.00 0.00 2.65 0.21
109.00 288.00 0.00 2.65 0.21
110.00 288.00 0.00 2.65 0.21
111.00 288.00 0.00 2.65 0.21
112.00 288.00 0.00 2.65 0.21
113.00 288.00 0.00 2.65 0.21
114.00 288.00 0.00 2.65 0.21
115.00 288.00 0.00 2.65 0.21
116.00 288.00 0.00 2.65 0.21
117.00 288.00 0.00 2.65 0.21
118.00 288.00 0.00 2.65 0.21
119.00 288.00 0.00 2.65 0.21
120.00 288.00 0.00 2.65 0.21
121.00 288.00 0.00 2.65 0.21
122.00 288.00 0.00 2.65 0.21
123.00 288.00 0.00 2.65 0.21
124.00 288.00 0.00 2.65 0.21
125.00 288.00 0.00 2.65 0.21
126.00 288.00 0.00 2.66 0.21
127.00 288.00 0.00 2.66 0.21
128.00 288.00 0.00 2.66 0.21
129.00 288.00 0.00 2.66 0.21
130.00 288.00 0.00 2.66 0.21
131.00 288.00 0.00 2.67 0.21
132.00 288.00 0.00 2.67 0.21
133.00 288.00 0.00 2.67 0.21
134.00 288.00 0.00 2.67 0.21
135.00 288.00 0.00 2.68 0.21
136.00 288.00 0.00 2.68 0.21
137.00 288.00 0.00 2.68 0.21
138.00 288.00 0.00 2.69 0.21
139.00 288.00 0.00 2.69 0.21
140.00 288.00 0.00 2.69 0.21
141.00 288.00 0.00 2.70 0.21
142.00 288.00 0.00 2.70 0.21
143.00 288.00 0.00 2.70 0.21
144.00 288.00 0.00 2.71 0.21
145.00 288.00 0.00 2.71 0.21
146.00 288.00 0.00 2.72 0.21
147.00 288.00 0.00 2.72 0.21
148.00 288.00 0.00 2.73 0.21
149.00 288.00 0.00 2.73 0.21
150.00 288.00 0.00 2.73 0.21
151.00 288.00 0.00 2.74 0.21
152.00 288.00 0.00 2.74 0.21
153.00 288.00 0.00 2.75 0.21
154.00 288.00 0.00 2.76 0.21
155.00 288.00 0.00 2.76 0.21
156.00 288.00 0.00 2.77 0.21
157.00 288.00 0.00 2.77 0.21
158.00 288.00 0.00 2.78 0.21
159.00 288.00 0.00 2.78 0.21
160.00 288.00 0.00 2.79 0.21
161.00 288.00 0.00 2.80 0.21
162.00 288.00 0.00 2.80 0.20
163.00 288.00 0.00 2.81 0.20
164.00 288.00 0.00 2.82 0.20
165.00 288.00 0.00 2.82 0.20
166.00 288.00 0.00 2.83 0.20
167.00 288.00 0.00 2.84 0.20
168.00 288.00 0.00 2.85 0.20
169.00 288.00 0.00 2.85 0.20
170.00 288.00 0.00 2.86 0.20
171.00 288.00 0.00 2.87 0.20
172.00 288.00 0.00 2.88 0.20
173.00 288.00 0.00 2.89 0.20
174.00 288.00 0.00 2.89 0.20
175.00 288.00 0.00 2.90 0.20
176.00 288.00 0.00 2.91 0.20
177.00 288.00 0.00 2.92 0.20
178.00 288.00 0.00 2.93 0.20
179.00 288.00 0.00 2.94 0.20
180.00 288.00 0.00 2.95 0.20
181.00 288.00 0.00 2.95 0.20
182.00 288.00 0.00 2.96 0.20
183.00 288.00 0.00 2.97 0.20
184.00 288.00 0.00 2.98 0.20
185.00 288.00 0.00 2.99 0.20
186.00 288.00 0.00 3.00 0.20
187.00 288.00 0.00 3.01 0.19
188.00 288.00 0.00 3.02 0.19
189.00 288.00 0.00 3.03 0.19
190.00 288.00 0.00 3.04 0.19
191.00 288.00 0.00 3.05 0.19
192.00 288.00 0.00 3.06 0.19
193.00 288.00 0.00 3.08 0.19
194.00 288.00 0.00 3.09 0.19
195.00 288.00 0.00 3.10 0.19
196.00 288.00 0.00 3.11 0.19
197.00 288.00 0.00 3.12 0.19
198.00 288.00 0.00 3.13 0.19
199.00 288.00 0.00 3.14 0.19
200.00 288.00 0.00 3.16 0.19
201.00 288.00 0.00 3.17 0.19
202.00 288.00 0.00 3.18 0.19
203.00 288.00 0.00 3.19 0.19
204.00 288.00 0.00 3.20 0.19
205.00 288.00 0.00 3.22 0.18
206.00 288.00 0.00 3.23 0.18
207.00 288.00 0.00 3.24 0.18
208.00 288.00 0.00 3.26 0.18
209.00 288.00 0.00 3.27 0.18
210.00 288.00 0.00 3.28 0.18
211.00 288.00 0.00 3.29 0.18
212.00 288.00 0.00 3.31 0.18
213.00 288.00 0.00 3.32 0.18
214.00 288.00 0.00 3.34 0.18
215.00 288.00 0.00 3.35 0.18
216.00 288.00 0.00 3.36 0.18
217.00 288.00 0.00 3.38 0.18
218.00 288.00 0.00 3.39 0.18
219.00 288.00 0.00 3.41 0.18
220.00 288.00 0.00 3.42 0.17
221.00 288.00 0.00 3.44 0.17
222.00 288.00 0.00 3.45 0.17
223.00 288.00 0.00 3.47 0.17
224.00 288.00 0.00 3.48 0.17
225.00 288.00 0.00 3.50 0.17
226.00 288.00 0.00 3.51 0.17
227.00 288.00 0.00 3.53 0.17
228.00 288.00 0.00 3.54 0.17
229.00 288.00 0.00 3.56 0.17
230.00 288.00 0.00 3.57 0.17
231.00 288.00 0.00 3.59 0.17
232.00 288.00 0.00 3.61 0.17
233.00 288.00 0.00 3.62 0.16
234.00 288.00 0.00 3.64 0.16
235.00 288.00 0.00 3.66 0.16
236.00 288.00 0.00 3.67 0.16
237.00 288.00 0.00 3.69 0.16
238.00 288.00 0.00 3.71 0.16
239.00 288.00 0.00 3.73 0.16
240.00 288.00 0.00 3.74 0.16
241.00 288.00 0.00 3.76 0.16
242.00 288.00 0.00 3.78 0.16
243.00 288.00 0.00 3.80 0.16
244.00 288.00 0.00 3.81 0.16
245.00 288.00 0.00 3.83 0.15
246.00 288.00 0.00 3.85 0.15
247.00 288.00 0.00 3.87 0.15
248.00 288.00 0.00 3.89 0.15
249.00 288.00 0.00 3.91 0.15
250.00 288.00 0.00 3.92 0.15
251.00 288.00 0.00 3.94 0.15
252.00 288.00 0.00 3.96 0.15
253.00 288.00 0.00 3.98 0.15
254.00 288.00 0.00 4.00 0.15
255.00 288.00 0.00 4.02 0.15
256.00 288.00 0.00 4.04 0.14
257.00 288.00 0.00 4.06 0.14
258.00 288.00 0.00 4.08 0.14
259.00 288.00 0.00 4.10 0.14
260.00 288.00 0.00 4.12 0.14
261.00 288.00 0.00 4.14 0.14
262.00 288.00 0.00 4.16 0.14
263.00 288.00 0.00 4.18 0.14
264.00 288.00 0.00 4.20 0.14
265.00 288.00 0.00 4.22 0.14
266.00 288.00 0.00 4.24 0.13
267.00 288.00 0.00 4.26 0.13
268.00 288.00 0.00 4.29 0.13
269.00 288.00 0.00 4.31 0.13
270.00 288.00 0.00 4.33 0.13
271.00 288.00 0.00 4.35 0.13
272.00 288.00 0.00 4.37 0.13
273.00 288.00 0.00 4.39 0.13
274.00 288.00 0.00 4.42 0.13
275.00 288.00 0.00 4.44 0.12
276.00 288.00 0.00 4.46 0.12
277.00 288.00 0.00 4.48 0.12
278.00 288.00 0.00 4.51 0.12
279.00 288.00 0.00 4.53 0.12
280.00 288.00 0.00 4.55 0.12
281.00 288.00 0.00 4.57 0.12
282.00 288.00 0.00 4.60 0.12
283.00 288.00 0.00 4.62 0.12
284.00 288.00 0.00 4.64 0.11
285.00 288.00 0.00 4.67 0.11
286.00 288.00 0.00 4.69 0.11
287.00 288.00 0.00 4.72 0.11
288.00 288.00 0.00 4.74 0.11
289.00 288.00 0.00 4.76 0.11
290.00 288.00 0.00 4.79 0.11
291.00 288.00 0.00 4.81 0.11
292.00 288.00 0.00 4.84 0.11
293.00 288.00 0.00 4.86 0.10
294.00 288.00 0.00 4.89 0.10
295.00 288.00 0.00 4.91 0.10
296.00 288.00 0.00 4.94 0.10
297.00 288.00 0.00 4.96 0.10
298.00 288.00 0.00 4.99 0.10
299.00 288.00 0.00 5.01 0.10
300.00 288.00 0.00 5.04 0.10
301.00 288.00 0.00 5.06 0.09
302.00 288.00 0.00 5.09 0.09
303.00 288.00 0.00 5.11 0.09
304.00 288.00 0.00 5.14 0.09
305.00 288.00 0.00 5.16 0.09
306.00 288.00 0.00 5.19 0.09
307.00 288.00 0.00 5.21 0.09
308.00 288.00 0.00 5.24 0.09
309.00 288.00 0.00 5.26 0.08
310.00 288.00 0.00 5.29 0.08
311.00 288.00 0.00 5.31 0.08
312.00 288.00 0.00 5.34 0.08
313.00 288.00 0.00 5.36 0.08
314.00 288.00 0.00 5.39 0.08
315.00 288.00 0.00 5.41 0.08
316.00 288.00 0.00 5.44 0.08
317.00 288.00 0.00 5.46 0.07
318.00 288.00 0.00 5.49 0.07
319.00 288.00 0.00 5.51 0.07
320.00 288.00 0.00 5.54 0.07
321.00 288.00 0.00 5.56 0.07
322.00 288.00 0.00 5.59 0.07
323.00 288.00 0.00 5.61 0.07
324.00 288.00 0.00 5.64 0.07
325.00 288.00 0.00 5.66 0.06
326.00 288.00 0.00 5.69 0.06
327.00 288.00 0.00 5.71 0.06
328.00 288.00 0.00 5.74 0.06
329.00 288.00 0.00 5.76 0.06
330.00 288.00 0.00 5.79 0.06
331.00 288.00 0.00 5.81 0.06
332.00 288.00 0.00 5.84 0.06
333.00 288.00 0.00 5.86 0.05
334.00 288.00 0.00 5.89 0.05
335.00 288.00 0.00 5.91 0.05
336.00 288.00 0.00 5.94 0.05
337.00 288.00 0.00 5.96 0.05
338.00 288.00 0.00 5.99 0.05
339.00 288.00 0.00 6.01 0.05
340.00 288.00 0.00 6.04 0.05
341.00 288.00 0.00 6.06 0.05
342.00 288.00 0.00 6.09 0.04
343.00 288.00 0.00 6.11 0.04
344.00 288.00 0.00 6.14 0.04
345.00 288.00 0.00 6.16 0.04
346.00 288.00 0.00 6.19 0.04
347.00 288.00 0.00 6.21 0.04
348.00 288.00 0.00 6.24 0.04
349.00 288.00 0.00 6.26 0.04
350.00 288.00 0.00 6.29 0.03
351.00 288.00 0.00 6.31 0.03
352.00 288.00 0.00 6.34 0.03
353.00 288.00 0.00 6.36 0.03
354.00 288.00 0.00 6.39 0.03
355.00 288.00 0.00 6.41 0.03
356.00 288.00 0.00 6.44 0.03
357.00 288.00 0.00 6.46 0.03
358.00 288.00 0.00 6.49 0.02
359.00 288.00 0.00 6.51 0.02
360.00 288.00 0.00 6.54 0.02
361.00 288.00 0.00 6.56 0.02
362.00 288.00 0.00 6.59 0.02
363.00 288.00 0.00 6.61 0.02
364.00 288.00 0.00 6.64 0.02
365.00 288.00 0.00 6.66 0.02
366.00 288.00 0.00 6.69 0.01
367.00 288.00 0.00 6.71 0.01
368.00 288.00 0.00 6.74 0.01
369.00 288.00 0.00 6.76 0.01
370.00 288.00 0.00 6.79 0.01
371.00 288.00 0.00 6.81 0.01
372.00 288.00 0.00 6.84 0.01
373.00 288.00 0.00 6.86 0.01
374.00 288.00 0.00 6.89 0.00
375.00 288.00 0.00 6.91 0.00
376.00 288.00 0.00 6.94 0.00
377.00 288.00 0.00 6.96 0.00
378.00 288.00 0.00 6.99 0.00
379.00 288.00 0.00 7.01 -0.00
380.00 288.00 0.00 7.04 -0.00
381.00 288.00 0.00 7.06 -0.00
382.00 288.00 0.00 7.09 -0.00
383.00 288.00 0.00 7.11 -0.01
384.00 288.00 0.00 7.14 -0.01
385.00 288.00 0.00 7.16 -0.01
386.00 288.00 0.00 7.19 -0.01
387.00 288.00 0.00 7.21 -0.01
388.00 288.00 0.00 7.24 -0.01
389.00 288.00 0.00 7.26 -0.01
390.00 288.00 0.00 7.29 -0.01
391.00 288.00 0.00 7.31 -0.02
392.00 288.00 0.00 7.34 -0.02
393.00 288.00 0.00 7.36 -0.02
394.00 288.00 0.00 7.39 -0.02
395.00 288.00 0.00 7.41 -0.02
396.00 288.00 0.00 7.44 -0.02
397.00 288.00 0.00 7.46 -0.02
398.00 288.00 0.00 7.49 -0.02
399.00 288.00 0.00 7.51 -0.03
400.00 288.00 0.00 7.54 -0.03
401.00 288.00 0.00 7.56 -0.03
402.00 288.00 0.00 7.59 -0.03
403.00 288.00 0.00 7.61 -0.03
404.00 288.00 0.00 7.64 -0.03
405.00 288.00 0.00 7.66 -0.03
406.00 288.00 0.00 7.69 -0.03
407.00 288.00 0.00 7.71 -0.04
408.00 288.00 0.00 7.74 -0.04
409.00 288.00 0.00 7.76 -0.04
410.00 288.00 0.00 7.79 -0.04
411.00 288.00 0.00 7.81 -0.04
412.00 288.00 0.00 7.84 -0.04
413.00 288.00 0.00 7.86 -0.04
414.00 288.00 0.00 7.89 -0.04
415.00 288.00 0.00 7.91 -0.05
416.00 288.00 0.00 7.94 -0.05
417.00 288.00 0.00 7.96 -0.05
418.00 288.00 0.00 7.99 -0.05
419.00 288.00 0.00 8.01 -0.05
420.00 288.00 0.00 8.04 -0.05
421.00 288.00 0.00 8.06 -0.05
422.00 288.00 0.00 8.09 -0.05
423.00 288.00 0.00 8.11 -0.05
424.00 288.00 0.00 8.14 -0.06
425.00 288.00 0.00 8.16 -0.06
426.00 288.00 0.00 8.19 -0.06
427.00 288.00 0.00 8.21 -0.06
428.00 288.00 0.00 8.24 -0.06
429.00 288.00 0.00 8.26 -0.06
430.00 288.00 0.00 8.29 -0.06
431.00 288.00 0.00 8.31 -0.06
432.00 288.00 0.00 8.34 -0.07
433.00 288.00 0.00 8.36 -0.07
434.00 288.00 0.00 8.39 -0.07
435.00 288.00 0.00 8.41 -0.07
436.00 288.00 0.00 8.44 -0.07
437.00 288.00 0.00 8.46 -0.07
438.00 288.00 0.00 8.49 -0.07
439.00 288.00 0.00 8.51 -0.07
440.00 288.00 0.00 8.54 -0.08
441.00 288.00 0.00 8.56 -0.08
442.00 288.00 0.00 8.59 -0.08
443.00 288.00 0.00 8.61 -0.08
444.00 288.00 0.00 8.64 -0.08
445.00 288.00 0.00 8.66 -0.08
446.00 288.00 0.00 8.69 -0.08
447.00 288.00 0.00 8.71 -0.08
448.00 288.00 0.00 8.74 -0.09
449.00 288.00 0.00 8.76 -0.09
450.00 288.00 0.00 8.79 -0.09
451.00 288.00 0.00 8.81 -0.09
452.00 288.00 0.00 8.84 -0.09
453.00 288.00 0.00 8.86 -0.09
454.00 288.00 0.00 8.89 -0.09
455.00 288.00 0.00 8.91 -0.09
456.00 288.00 0.00 8.94 -0.10
457.00 288.00 0.00 8.96 -0.10
458.00 288.00 0.00 8.99 -0.10
459.00 288.00 0.00 9.01 -0.10
460.00 288.00 0.00 9.04 -0.10
461.00 288.00 0.00 9.06 -0.10
462.00 288.00 0.00 9.09 -0.10
463.00 288.00 0.00 9.11 -0.10
464.00 288.00 0.00 9.14 -0.11
465.00 288.00 0.00 9.16 -0.11
466.00 288.00 0.00 9.19 -0.11
467.00 288.00 0.00 9.21 -0.11
468.00 288.00 0.00 9.24 -0.11
469.00 288.00 0.00 9.26 -0.11
470.00 288.00 0.00 9.28 -0.11
471.00 288.00 0.00 9.31 -0.11
472.00 288.00 0.00 9.33 -0.11
473.00 288.00 0.00 9.36 -0.12
474.00 288.00 0.00 9.38 -0.12
475.00 288.00 0.00 9.40 -0.12
476.00 288.00 0.00 9.43 -0.12
477.00 288.00 0.00 9.45 -0.12
478.00 288.00 0.00 9.47 -0.12
479.00 288.00 0.00 9.49 -0.12
480.00 288.00 0.00 9.52 -0.12
481.00 288.00 0.00 9.54 -0.12
482.00 288.00 0.00 9.56 -0.13
483.00 288.00 0.00 9.58 -0.13
484.00 288.00 0.00 9.61 -0.13
485.00 288.00 0.00 9.63 -0.13
486.00 288.00 0.00 9.65 -0.13
487.00 288.00 0.00 9.67 -0.13
488.00 288.00 0.00 9.69 -0.13
489.00 288.00 0.00 9.71 -0.13
490.00 288.00 0.00 9.74 -0.13
491.00 288.00 0.00 9.76 -0.14
492.00 288.00 0.00 9.78 -0.14
493.00 288.00 0.00 9.80 -0.14
494.00 288.00 0.00 9.82 -0.14
495.00 288.00 0.00 9.84 -0.14
496.00 288.00 0.00 9.86 -0.14
497.00 288.00 0.00 9.88 -0.14
498.00 288.00 0.00 9.90 -0.14
499.00 288.00 0.00 9.92 -0.14
500.00 288.00 0.00 9.94 -0.14
501.00 288.00 0.00 9.96 -0.15
502.00 288.00 0.00 9.98 -0.15
503.00 288.00 0.00 10.00 -0.15
504.00 288.00 0.00 10.02 -0.15
505.00 288.00 0.00 10.04 -0.15
506.00 288.00 0.00 10.06 -0.15
507.00 288.00 0.00 10.08 -0.15
508.00 288.00 0.00 10.09 -0.15
509.00 288.00 0.00 10.11 -0.15
510.00 288.00 0.00 10.13 -0.15
511.00 288.00 0.00 10.15 -0.15
512.00 288.00 0.00 10.17 -0.16
513.00 288.00 0.00 10.19 -0.16
514.00 288.00 0.00 10.20 -0.16
515.00 288.00 0.00 10.22 -0.16
516.00 288.00 0.00 10.24 -0.16
517.00 288.00 0.00 10.26 -0.16
518.00 288.00 0.00 10.27 -0.16
519.00 288.00 0.00 10.29 -0.16
520.00 288.00 0.00 10.31 -0.16
521.00 288.00 0.00 10.33 -0.16
522.00 288.00 0.00 10.34 -0.16
523.00 288.00 0.00 10.36 -0.16
524.00 288.00 0.00 10.38 -0.17
525.00 288.00 0.00 10.39 -0.17
526.00 288.00 0.00 10.41 -0.17
527.00 288.00 0.00 10.43 -0.17
528.00 288.00 0.00 10.44 -0.17
529.00 288.00 0.00 10.46 -0.17
530.00 288.00 0.00 10.47 -0.17
531.00 288.00 0.00 10.49 -0.17
532.00 288.00 0.00 10.50 -0.17
533.00 288.00 0.00 10.52 -0.17
534.00 288.00 0.00 10.53 -0.17
535.00 288.00 0.00 10.55 -0.17
536.00 288.00 0.00 10.56 -0.17
537.00 288.00 0.00 10.58 -0.18
538.00 288.00 0.00 10.59 -0.18
539.00 288.00 0.00 10.61 -0.18
540.00 288.00 0.00 10.62 -0.18
541.00 288.00 0.00 10.64 -0.18
542.00 288.00 0.00 10.65 -0.18
543.00 288.00 0.00 10.66 -0.18
544.00 288.00 0.00 10.68 -0.18
545.00 288.00 0.00 10.69 -0.18
546.00 288.00 0.00 10.71 -0.18
547.00 288.00 0.00 10.72 -0.18
548.00 288.00 0.00 10.73 -0.18
549.00 288.00 0.00 10.74 -0.18
550.00 288.00 0.00 10.76 -0.18
551.00 288.00 0.00 10.77 -0.18
552.00 288.00 0.00 10.78 -0.19
553.00 288.00 0.00 10.80 -0.19
554.00 288.00 0.00 10.81 -0.19
555.00 288.00 0.00 10.82 -0.19
556.00 288.00 0.00 10.83 -0.19
557.00 288.00 0.00 10.84 -0.19
558.00 288.00 0.00 10.86 -0.19
559.00 288.00 0.00 10.87 -0.19
560.00 288.00 0.00 10.88 -0.19
561.00 288.00 0.00 10.89 -0.19
562.00 288.00 0.00 10.90 -0.19
563.00 288.00 0.00 10.91 -0.19
564.00 288.00 0.00 10.92 -0.19
565.00 288.00 0.00 10.94 -0.19
566.00 288.00 0.00 10.95 -0.19
567.00 288.00 0.00 10.96 -0.19
568.00 288.00 0.00 10.97 -0.19
569.00 288.00 0.00 10.98 -0.19
570.00 288.00 0.00 10.99 -0.20
571.00 288.00 0.00 11.00 -0.20
572.00 288.00 0.00 11.01 -0.20
573.00 288.00 0.00 11.02 -0.20
574.00 288.00 0.00 11.03 -0.20
575.00 288.00 0.00 11.04 -0.20
576.00 288.00 0.00 11.05 -0.20
577.00 288.00 0.00 11.05 -0.20
578.00 288.00 0.00 11.06 -0.20
579.00 288.00 0.00 11.07 -0.20
580.00 288.00 0.00 11.08 -0.20
581.00 288.00 0.00 11.09 -0.20
582.00 288.00 0.00 11.10 -0.20
583.00 288.00 0.00 11.11 -0.20
584.00 288.00 0.00 11.11 -0.20
585.00 288.00 0.00 11.12 -0.20
586.00 288.00 0.00 11.13 -0.20
587.00 288.00 0.00 11.14 -0.20
588.00 288.00 0.00 11.15 -0.20
589.00 288.00 0.00 11.15 -0.20
590.00 288.00 0.00 11.16 -0.20
591.00 288.00 0.00 11.17 -0.20
592.00 288.00 0.00 11.18 -0.20
593.00 288.00 0.00 11.18 -0.20
594.00 288.00 0.00 11.19 -0.20
595.00 288.00 0.00 11.20 -0.21
596.00 288.00 0.00 11.20 -0.21
597.00 288.00 0.00 11.21 -0.21
598.00 288.00 0.00 11.22 -0.21
599.00 288.00 0.00 11.22 -0.21
600.00 288.00 0.00 11.23 -0.21
601.00 288.00 0.00 11.23 -0.21
602.00 288.00 0.00 11.24 -0.21
603.00 288.00 0.00 11.24 -0.21
604.00 288.00 0.00 11.25 -0.21
605.00 288.00 0.00 11.26 -0.21
606.00 288.00 0.00 11.26 -0.21
607.00 288.00 0.00 11.27 -0.21
608.00 288.00 0.00 11.27 -0.21
609.00 288.00 0.00 11.27 -0.21
610.00 288.00 0.00 11.28 -0.21
611.00 288.00 0.00 11.28 -0.21
612.00 288.00 0.00 11.29 -0.21
613.00 288.00 0.00 11.29 -0.21
614.00 288.00 0.00 11.30 -0.21
615.00 288.00 0.00 11.30 -0.21
616.00 288.00 0.00 11.30 -0.21
617.00 288.00 0.00 11.31 -0.21
618.00 288.00 0.00 11.31 -0.21
619.00 288.00 0.00 11.31 -0.21
620.00 288.00 0.00 11.32 -0.21
621.00 288.00 0.00 11.32 -0.21
622.00 288.00 0.00 11.32 -0.21
623.00 288.00 0.00 11.33 -0.21
624.00 288.00 0.00 11.33 -0.21
625.00 288.00 0.00 11.33 -0.21
626.00 288.00 0.00 11.33 -0.21
627.00 288.00 0.00 11.34 -0.21
628.00 288.00 0.00 11.34 -0.21
629.00 288.00 0.00 11.34 -0.21
630.00 288.00 0.00 11.34 -0.21
631.00 288.00 0.00 11.34 -0.21
632.00 288.00 0.00 11.35 -0.21
633.00 288.00 0.00 11.35 -0.21
634.00 288.00 0.00 11.35 -0.21
635.00 288.00 0.00 11.35 -0.21
636.00 288.00 0.00 11.35 -0.21
637.00 288.00 0.00 11.35 -0.21
638.00 288.00 0.00 11.35 -0.21
639.00 288.00 0.00 11.35 -0.21
640.00 288.00 0.00 11.35 -0.21
641.00 288.00 0.00 11.35 -0.21
642.00 288.00 0.00 11.35 -0.21
643.00 288.00 0.00 11.35 -0.21
644.00 288.00 0.00 11.35 -0.21
645.00 288.00 0.00 11.35 -0.21
646.00 288.00 0.00 11.35 -0.21
647.00 288.00 0.00 11.35 -0.21
648.00 288.00 0.00 11.35 -0.21
649.00 288.00 0.00 11.35 -0.21
650.00 288.00 0.00 11.35 -0.21
651.00 288.00 0.00 11.35 -0.21
652.00 288.00 0.00 11.35 -0.21
653.00 288.00 0.00 11.35 -0.21
654.00 288.00 0.00 11.35 -0.21
655.00 288.00 0.00 11.35 -0.21
656.00 288.00 0.00 11.35 -0.21
657.00 288.00 0.00 11.35 -0.21
658.00 288.00 0.00 11.35 -0.21
659.00 288.00 0.00 11.35 -0.21
660.00 288.00 0.00 11.35 -0.21
661.00 288.00 0.00 11.35 -0.21
662.00 288.00 0.00 11.35 -0.21
663.00 288.00 0.00 11.35 -0.21
664.00 288.00 0.00 11.35 -0.21
665.00 288.00 0.00 11.35 -0.21
666.00 288.00 0.00 11.35 -0.21
667.00 288.00 0.00 11.35 -0.21
668.00 288.00 0.00 11.35 -0.21
669.00 288.00 0.00 11.35 -0.21
670.00 288.00 0.00 11.35 -0.21
671.00 288.00 0.00 11.35 -0.21
672.00 288.00 0.00 11.35 -0.21
673.00 288.00 0.00 11.35 -0.21
674.00 288.00 0.00 11.35 -0.21
675.00 288.00 0.00 11.35 -0.21
676.00 288.00 0.00 11.35 -0.21
677.00 288.00 0.00 11.35 -0.21
678.00 288.00 0.00 11.35 -0.21
679.00 288.00 0.00 11.35 -0.21
680.00 288.00 0.00 11.35 -0.21
681.00 288.00 0.00 11.35 -0.21
682.00 288.00 0.00 11.35 -0.21
683.00 288.00 0.00 11.35 -0.21
684.00 288.00 0.00 11.35 -0.21
685.00 288.00 0.00 11.35 -0.21
686.00 288.00 0.00 11.35 -0.21
687.00 288.00 0.00 11.35 -0.21
688.00 288.00 0.00 11.35 -0.21
689.00 288.00 0.00 11.35 -0.21
690.00 288.00 0.00 11.35 -0.21
691.00 288.00 0.00 11.35 -0.21
692.00 288.00 0.00 11.35 -0.21
693.00 288.00 0.00 11.35 -0.21
694.00 288.00 0.00 11.35 -0.21
695.00 288.00 0.00 11.35 -0.21
696.00 288.00 0.00 11.35 -0.21
697.00 288.00 0.00 11.35 -0.21
698.00 288.00 0.00 11.35 -0.21
699.00 288.00 0.00 11.35 -0.21
700.00 288.00 0.00 11.35 -0.21
701.00 288.00 0.00 11.35 -0.21
702.00 288.00 0.00 11.35 -0.21
703.00 288.00 0.00 11.35 -0.21
704.00 288.00 0.00 11.35 -0.21
705.00 288.00 0.00 11.35 -0.21
706.00 288.00 0.00 11.35 -0.21
707.00 288.00 0.00 11.35 -0.21
708.00 288.00 0.00 11.35 -0.21
709.00 288.00 0.00 11.35 -0.21
710.00 288.00 0.00 11.35 -0.21
711.00 288.00 0.00 11.35 -0.21
712.00 288.00 0.00 11.35 -0.21
713.00 288.00 0.00 11.35 -0.21
714.00 288.00 0.00 11.35 -0.21
715.00 288.00 0.00 11.35 -0.21
716.00 288.00 0.00 11.35 -0.21
717.00 288.00 0.00 11.35 -0.21
718.00 288.00 0.00 11.35 -0.21
719.00 288.00 0.00 11.35 -0.21
720.00 288.00 0.00 11.35 -0.21
721.00 288.00 0.00 11.35 -0.21
722.00 288.00 0.00 11.35 -0.21
723.00 288.00 0.00 11.35 -0.21
724.00 288.00 0.00 11.35 -0.21
725.00 288.00 0.00 11.35 -0.21
726.00 288.00 0.00 11.35 -0.21
727.00 288.00 0.00 11.35 -0.21
728.00 288.00 0.00 11.35 -0.21
729.00 288.00 0.00 11.35 -0.21
730.00 288.00 0.00 11.35 -0.21
731.00 288.00 0.00 11.35 -0.21
732.00 288.00 0.00 11.35 -0.21
733.00 288.00 0.00 11.35 -0.21
734.00 288.00 0.00 11.35 -0.21
735.00 288.00 0.00 11.35 -0.21
736.00 288.00 0.00 11.35 -0.21
737.00 288.00 0.00 11.35 -0.21
738.00 288.00 0.00 11.35 -0.21
739.00 288.00 0.00 11.35 -0.21
740.00 288.00 0.00 11.35 -0.21
741.00 288.00 0.00 11.35 -0.21
742.00 288.00 0.00 11.35 -0.21
743.00 288.00 0.00 11.35 -0.21
744.00 288.00 0.00 11.35 -0.21
745.00 288.00 0.00 11.35 -0.21
746.00 288.00 0.00 11.35 -0.21
747.00 288.00 0.00 11.35 -0.21
748.00 288.00 0.00 11.35 -0.21
749.00 288.00 0.00 11.35 -0.21
750.00 288.00 0.00 11.35 -0.21
751.00 288.00 0.00 11.35 -0.21
752.00 288.00 0.00 11.35 -0.21
753.00 288.00 0.00 11.35 -0.21
754.00 288.00 0.00 11.35 -0.21
755.00 288.00 0.00 11.35 -0.21
756.00 288.00 0.00 11.35 -0.21
757.00 288.00 0.00 11.35 -0.21
758.00 288.00 0.00 11.35 -0.21
759.00 288.00 0.00 11.35 -0.21
760.00 288.00 0.00 11.35 -0.21
761.00 288.00 0.00 11.35 -0.21
762.00 288.00 0.00 11.35 -0.21
763.00 288.00 0.00 11.35 -0.21
764.00 288.00 0.00 11.35 -0.21
765.00 288.00 0.00 11.35 -0.21
766.00 288.00 0.00 11.35 -0.21
767.00 288.00 0.00 11.35 -0.21
768.00 288.00 0.00 11.35 -0.21
769.00 288.00 0.00 11.35 -0.21
770.00 288.00 0.00 11.35 -0.21
771.00 288.00 0.00 11.35 -0.21
772.00 288.00 0.00 11.35 -0.21
773.00 288.00 0.00 11.35 -0.21
774.00 288.00 0.00 11.35 -0.21
775.00 288.00 0.00 11.35 -0.21
776.00 288.00 0.00 11.35 -0.21
777.00 288.00 0.00 11.35 -0.21
778.00 288.00 0.00 11.35 -0.21
779.00 288.00 0.00 11.35 -0.21
780.00 288.00 0.00 11.35 -0.21
781.00 288.00 0.00 11.35 -0.21
782.00 288.00 0.00 11.35 -0.21
783.00 288.00 0.00 11.35 -0.21
784.00 288.00 0.00 11.35 -0.21
785.00 288.00 0.00 11.35 -0.21
786.00 288.00 0.00 11.35 -0.21
787.00 288.00 0.00 11.35 -0.21
788.00 288.00 0.00 11.35 -0.21
789.00 288.00 0.00 11.35 -0.21
790.00 288.00 0.00 11.35 -0.21
791.00 288.00 0.00 11.35 -0.21
792.00 288.00 0.00 11.35 -0.21
793.00 288.00 0.00 11.35 -0.21
794.00 288.00 0.00 11.35 -0.21
795.00 288.00 0.00 11.35 -0.21
796.00 288.00 0.00 11.35 -0.21
797.00 288.00 0.00 11.35 -0.21
798.00 288.00 0.00 11.35 -0.21
799.00 288.00 0.00 11.35 -0.21
800.00 288.00 0.00 11.35 -0.21
801.00 288.00 0.00 11.35 -0.21
802.00 288.00 0.00 11.35 -0.21
803.00 288.00 0.00 11.35 -0.21
804.00 288.00 0.00 11.35 -0.21
805.00 288.00 0.00 11.35 -0.21
806.00 288.00 0.00 11.35 -0.21
807.00 288.00 0.00 11.35 -0.21
808.00 288.00 0.00 11.35 -0.21
809.00 288.00 0.00 11.35 -0.21
810.00 288.00 0.00 11.35 -0.21
811.00 288.00 0.00 11.35 -0.21
812.00 288.00 0.00 11.35 -0.21
813.00 288.00 0.00 11.35 -0.21
814.00 288.00 0.00 11.35 -0.21
815.00 288.00 0.00 11.35 -0.21
816.00 288.00 0.00 11.35 -0.21
817.00 288.00 0.00 11.35 -0.21
818.00 288.00 0.00 11.35 -0.21
819.00 288.00 0.00 11.35 -0.21
820.00 288.00 0.00 11.35 -0.21
821.00 288.00 0.00 11.35 -0.21
822.00 288.00 0.00 11.35 -0.21
823.00 288.00 0.00 11.35 -0.21
824.00 288.00 0.00 11.35 -0.21
825.00 288.00 0.00 11.35 -0.21
826.00 288.00 0.00 11.35 -0.21
827.00 288.00 0.00 11.35 -0.21
828.00 288.00 0.00 11.35 -0.21
829.00 288.00 0.00 11.35 -0.21
830.00 288.00 0.00 11.35 -0.21
831.00 288.00 0.00 11.35 -0.21
