1000.00 288.00 00.00
0.00 288.00 0.00 7.00 -2.69
1.00 288.00 0.00 7.00 -2.69
2.00 288.00 0.00 7.00 -2.69
3.00 288.00 0.00 7.00 -2.69
4.00 288.00 0.00 7.00 -2.69
5.00 288.00 0.00 7.00 -2.69
6.00 288.00 0.00 7.00 -2.69
7.00 288.00 0.00 7.00 -2.69
8.00 288.00 0.00 7.00 -2.69
9.00 288.00 0.00 7.00 -2.69
10.00 288.00 0.00 7.00 -2.69
11.00 288.00 0.00 7.00 -2.69
12.00 288.00 0.00 7.00 -2.69
13.00 288.00 0.00 7.00 -2.69
14.00 288.00 0.00 7.00 -2.69
15.00 288.00 0.00 7.00 -2.69
16.00 288.00 0.00 7.00 -2.69
17.00 288.00 0.00 7.00 -2.69
18.00 288.00 0.00 7.00 -2.69
19.00 288.00 0.00 7.00 -2.69
20.00 288.00 0.00 7.00 -2.69
21.00 288.00 0.00 7.00 -2.69
22.00 288.00 0.00 7.00 -2.69
23.00 288.00 0.00 7.00 -2.69
24.00 288.00 0.00 7.00 -2.69
25.00 288.00 0.00 7.00 -2.69
26.00 288.00 0.00 7.00 -2.69
27.00 288.00 0.00 7.00 -2.69
28.00 288.00 0.00 7.00 -2.69
29.00 288.00 0.00 7.00 -2.69
30.00 288.00 0.00 7.00 -2.69
31.00 288.00 0.00 7.00 -2.69
32.00 288.00 0.00 7.00 -2.69
33.00 288.00 0.00 7.00 -2.69
34.00 288.00 0.00 7.00 -2.69
35.00 288.00 0.00 7.00 -2.69
36.00 288.00 0.00 7.00 -2.69
37.00 288.00 0.00 7.00 -2.69
38.00 288.00 0.00 7.00 -2.69
39.00 288.00 0.00 7.00 -2.69
40.00 288.00 0.00 7.00 -2.69
41.00 288.00 0.00 7.00 -2.69
42.00 288.00 0.00 7.00 -2.69
43.00 288.00 0.00 7.00 -2.69
44.00 288.00 0.00 7.00 -2.69
45.00 288.00 0.00 7.00 -2.69
46.00 288.00 0.00 7.00 -2.69
47.00 288.00 0.00 7.00 -2.69
48.00 288.00 0.00 7.00 -2.69
49.00 288.00 0.00 7.00 -2.69
50.00 288.00 0.00 7.00 -2.69
51.00 288.00 0.00 7.00 -2.69
52.00 288.00 0.00 7.00 -2.69
53.00 288.00 0.00 7.00 -2.69
54.00 288.00 0.00 7.00 -2.69
55.00 288.00 0.00 7.00 -2.69
56.00 288.00 0.00 7.00 -2.69
57.00 288.00 0.00 7.00 -2.69
58.00 288.00 0.00 7.00 -2.69
59.00 288.00 0.00 7.00 -2.69
60.00 288.00 0.00 7.00 -2.69
61.00 288.00 0.00 7.00 -2.69
62.00 288.00 0.00 7.00 -2.69
63.00 288.00 0.00 7.00 -2.69
64.00 288.00 0.00 7.00 -2.69
65.00 288.00 0.00 7.00 -2.69
66.00 288.00 0.00 7.00 -2.69
67.00 288.00 0.00 7.00 -2.69
68.00 288.00 0.00 7.00 -2.69
69.00 288.00 0.00 7.00 -2.69
70.00 288.00 0.00 7.00 -2.69
71.00 288.00 0.00 7.00 -2.69
72.00 288.00 0.00 7.00 -2.69
73.00 288.00 0.00 7.00 -2.69
74.00 288.00 0.00 7.00 -2.69
75.00 288.00 0.00 7.00 -2.69
76.00 288.00 0.00 7.00 -2.69
77.00 288.00 0.00 7.00 -2.69
78.00 288.00 0.00 7.00 -2.69
79.00 288.00 0.00 7.00 -2.69
80.00 288.00 0.00 7.00 -2.69
81.00 288.00 0.00 7.00 -2.69
82.00 288.00 0.00 7.00 -2.69
83.00 288.00 0.00 7.00 -2.69
84.00 288.00 0.00 7.00 -2.69
85.00 288.00 0.00 7.00 -2.69
86.00 288.00 0.00 7.00 -2.69
87.00 288.00 0.00 7.00 -2.69
88.00 288.00 0.00 7.00 -2.69
89.00 288.00 0.00 7.00 -2.69
90.00 288.00 0.00 7.00 -2.69
91.00 288.00 0.00 7.00 -2.69
92.00 288.00 0.00 7.00 -2.69
93.00 288.00 0.00 7.00 -2.69
94.00 288.00 0.00 7.00 -2.69
95.00 288.00 0.00 7.00 -2.69
96.00 288.00 0.00 7.00 -2.69
97.00 288.00 0.00 7.00 -2.69
98.00 288.00 0.00 7.00 -2.69
99.00 288.00 0.00 7.00 -2.69
100.00 288.00 0.00 7.00 -2.69
101.00 288.00 0.00 7.00 -2.69
102.00 288.00 0.00 7.00 -2.69
103.00 288.00 0.00 7.00 -2.69
104.00 288.00 0.00 7.00 -2.69
105.00 288.00 0.00 7.00 -2.69
106.00 288.00 0.00 7.00 -2.69
107.00 288.00 0.00 7.00 -2.69
108.00 288.00 0.00 7.00 -2.69
109.00 288.00 0.00 7.00 -2.69
110.00 288.00 0.00 7.00 -2.69
111.00 288.00 0.00 7.00 -2.69
112.00 288.00 0.00 7.00 -2.69
113.00 288.00 0.00 7.00 -2.69
114.00 288.00 0.00 7.00 -2.69
115.00 288.00 0.00 7.00 -2.69
116.00 288.00 0.00 7.00 -2.69
117.00 288.00 0.00 7.00 -2.69
118.00 288.00 0.00 7.00 -2.69
119.00 288.00 0.00 7.00 -2.69
120.00 288.00 0.00 7.00 -2.69
121.00 288.00 0.00 7.00 -2.69
122.00 288.00 0.00 7.00 -2.69
123.00 288.00 0.00 7.00 -2.69
124.00 288.00 0.00 7.00 -2.69
125.00 288.00 0.00 7.00 -2.69
126.00 288.00 0.00 7.00 -2.69
127.00 288.00 0.00 7.00 -2.69
128.00 288.00 0.00 7.00 -2.69
129.00 288.00 0.00 7.00 -2.68
130.00 288.00 0.00 7.00 -2.68
131.00 288.00 0.00 7.00 -2.68
132.00 288.00 0.00 7.00 -2.68
133.00 288.00 0.00 7.00 -2.68
134.00 288.00 0.00 7.00 -2.68
135.00 288.00 0.00 7.00 -2.68
136.00 288.00 0.00 7.00 -2.67
137.00 288.00 0.00 7.00 -2.67
138.00 288.00 0.00 7.00 -2.67
139.00 288.00 0.00 7.00 -2.67
140.00 288.00 0.00 7.00 -2.67
141.00 288.00 0.00 7.00 -2.66
142.00 288.00 0.00 7.00 -2.66
143.00 288.00 0.00 7.00 -2.66
144.00 288.00 0.00 7.00 -2.66
145.00 288.00 0.00 7.00 -2.65
146.00 288.00 0.00 7.00 -2.65
147.00 288.00 0.00 7.00 -2.65
148.00 288.00 0.00 7.00 -2.65
149.00 288.00 0.00 7.00 -2.64
150.00 288.00 0.00 7.00 -2.64
151.00 288.00 0.00 7.00 -2.64
152.00 288.00 0.00 7.00 -2.63
153.00 288.00 0.00 7.00 -2.63
154.00 288.00 0.00 7.00 -2.63
155.00 288.00 0.00 7.00 -2.63
156.00 288.00 0.00 7.00 -2.62
157.00 288.00 0.00 7.00 -2.62
158.00 288.00 0.00 7.00 -2.61
159.00 288.00 0.00 7.00 -2.61
160.00 288.00 0.00 7.00 -2.61
161.00 288.00 0.00 7.00 -2.60
162.00 288.00 0.00 7.00 -2.60
163.00 288.00 0.00 7.00 -2.60
164.00 288.00 0.00 7.00 -2.59
165.00 288.00 0.00 7.00 -2.59
166.00 288.00 0.00 7.00 -2.58
167.00 288.00 0.00 7.00 -2.58
168.00 288.00 0.00 7.00 -2.57
169.00 288.00 0.00 7.00 -2.57
170.00 288.00 0.00 7.00 -2.57
171.00 288.00 0.00 7.00 -2.56
172.00 288.00 0.00 7.00 -2.56
173.00 288.00 0.00 7.00 -2.55
174.00 288.00 0.00 7.00 -2.55
175.00 288.00 0.00 7.00 -2.54
176.00 288.00 0.00 7.00 -2.54
177.00 288.00 0.00 7.00 -2.53
178.00 288.00 0.00 7.00 -2.53
179.00 288.00 0.00 7.00 -2.52
180.00 288.00 0.00 7.00 -2.52
181.00 288.00 0.00 7.00 -2.51
182.00 288.00 0.00 7.00 -2.50
183.00 288.00 0.00 7.00 -2.50
184.00 288.00 0.00 7.00 -2.49
185.00 288.00 0.00 7.00 -2.49
186.00 288.00 0.00 7.00 -2.48
187.00 288.00 0.00 7.00 -2.48
188.00 288.00 0.00 7.00 -2.47
189.00 288.00 0.00 7.00 -2.46
190.00 288.00 0.00 7.00 -2.46
191.00 288.00 0.00 7.00 -2.45
192.00 288.00 0.00 7.00 -2.44
193.00 288.00 0.00 7.00 -2.44
194.00 288.00 0.00 7.00 -2.43
195.00 288.00 0.00 7.00 -2.42
196.00 288.00 0.00 7.00 -2.42
197.00 288.00 0.00 7.00 -2.41
198.00 288.00 0.00 7.00 -2.40
199.00 288.00 0.00 7.00 -2.40
200.00 288.00 0.00 7.00 -2.39
201.00 288.00 0.00 7.00 -2.38
202.00 288.00 0.00 7.00 -2.38
203.00 288.00 0.00 7.00 -2.37
204.00 288.00 0.00 7.00 -2.36
205.00 288.00 0.00 7.00 -2.35
206.00 288.00 0.00 7.00 -2.35
207.00 288.00 0.00 7.00 -2.34
208.00 288.00 0.00 7.00 -2.33
209.00 288.00 0.00 7.00 -2.32
210.00 288.00 0.00 7.00 -2.31
211.00 288.00 0.00 7.00 -2.31
212.00 288.00 0.00 7.00 -2.30
213.00 288.00 0.00 7.00 -2.29
214.00 288.00 0.00 7.00 -2.28
215.00 288.00 0.00 7.00 -2.27
216.00 288.00 0.00 7.00 -2.26
217.00 288.00 0.00 7.00 -2.26
218.00 288.00 0.00 7.00 -2.25
219.00 288.00 0.00 7.00 -2.24
220.00 288.00 0.00 7.00 -2.23
221.00 288.00 0.00 7.00 -2.22
222.00 288.00 0.00 7.00 -2.21
223.00 288.00 0.00 7.00 -2.20
224.00 288.00 0.00 7.00 -2.19
225.00 288.00 0.00 7.00 -2.18
226.00 288.00 0.00 7.00 -2.17
227.00 288.00 0.00 7.00 -2.17
228.00 288.00 0.00 7.00 -2.16
229.00 288.00 0.00 7.00 -2.15
230.00 288.00 0.00 7.00 -2.14
231.00 288.00 0.00 7.00 -2.13
232.00 288.00 0.00 7.00 -2.12
233.00 288.00 0.00 7.00 -2.11
234.00 288.00 0.00 7.00 -2.10
235.00 288.00 0.00 7.00 -2.09
236.00 288.00 0.00 7.00 -2.08
237.00 288.00 0.00 7.00 -2.07
238.00 288.00 0.00 7.00 -2.06
239.00 288.00 0.00 7.00 -2.04
240.00 288.00 0.00 7.00 -2.03
241.00 288.00 0.00 7.00 -2.02
242.00 288.00 0.00 7.00 -2.01
243.00 288.00 0.00 7.00 -2.00
244.00 288.00 0.00 7.00 -1.99
245.00 288.00 0.00 7.00 -1.98
246.00 288.00 0.00 7.00 -1.97
247.00 288.00 0.00 7.00 -1.96
248.00 288.00 0.00 7.00 -1.95
249.00 288.00 0.00 7.00 -1.93
250.00 288.00 0.00 7.00 -1.92
251.00 288.00 0.00 7.00 -1.91
252.00 288.00 0.00 7.00 -1.90
253.00 288.00 0.00 7.00 -1.89
254.00 288.00 0.00 7.00 -1.88
255.00 288.00 0.00 7.00 -1.86
256.00 288.00 0.00 7.00 -1.85
257.00 288.00 0.00 7.00 -1.84
258.00 288.00 0.00 7.00 -1.83
259.00 288.00 0.00 7.00 -1.82
260.00 288.00 0.00 7.00 -1.80
261.00 288.00 0.00 7.00 -1.79
262.00 288.00 0.00 7.00 -1.78
263.00 288.00 0.00 7.00 -1.77
264.00 288.00 0.00 7.00 -1.75
265.00 288.00 0.00 7.00 -1.74
266.00 288.00 0.00 7.00 -1.73
267.00 288.00 0.00 7.00 -1.71
268.00 288.00 0.00 7.00 -1.70
269.00 288.00 0.00 7.00 -1.69
270.00 288.00 0.00 7.00 -1.67
271.00 288.00 0.00 7.00 -1.66
272.00 288.00 0.00 7.00 -1.65
273.00 288.00 0.00 7.00 -1.63
274.00 288.00 0.00 7.00 -1.62
275.00 288.00 0.00 7.00 -1.61
276.00 288.00 0.00 7.00 -1.59
277.00 288.00 0.00 7.00 -1.58
278.00 288.00 0.00 7.00 -1.56
279.00 288.00 0.00 7.00 -1.55
280.00 288.00 0.00 7.00 -1.54
281.00 288.00 0.00 7.00 -1.52
282.00 288.00 0.00 7.00 -1.51
283.00 288.00 0.00 7.00 -1.49
284.00 288.00 0.00 7.00 -1.48
285.00 288.00 0.00 7.00 -1.46
286.00 288.00 0.00 7.00 -1.45
287.00 288.00 0.00 7.00 -1.43
288.00 288.00 0.00 7.00 -1.42
289.00 288.00 0.00 7.00 -1.40
290.00 288.00 0.00 7.00 -1.39
291.00 288.00 0.00 7.00 -1.37
292.00 288.00 0.00 7.00 -1.36
293.00 288.00 0.00 7.00 -1.34
294.00 288.00 0.00 7.00 -1.33
295.00 288.00 0.00 7.00 -1.31
296.00 288.00 0.00 7.00 -1.29
297.00 288.00 0.00 7.00 -1.28
298.00 288.00 0.00 7.00 -1.26
299.00 288.00 0.00 7.00 -1.25
300.00 288.00 0.00 7.00 -1.23
301.00 288.00 0.00 7.00 -1.22
302.00 288.00 0.00 7.00 -1.20
303.00 288.00 0.00 7.00 -1.19
304.00 288.00 0.00 7.00 -1.17
305.00 288.00 0.00 7.00 -1.15
306.00 288.00 0.00 7.00 -1.14
307.00 288.00 0.00 7.00 -1.12
308.00 288.00 0.00 7.00 -1.11
309.00 288.00 0.00 7.00 -1.09
310.00 288.00 0.00 7.00 -1.08
311.00 288.00 0.00 7.00 -1.06
312.00 288.00 0.00 7.00 -1.04
313.00 288.00 0.00 7.00 -1.03
314.00 288.00 0.00 7.00 -1.01
315.00 288.00 0.00 7.00 -1.00
316.00 288.00 0.00 7.00 -0.98
317.00 288.00 0.00 7.00 -0.97
318.00 288.00 0.00 7.00 -0.95
319.00 288.00 0.00 7.00 -0.93
320.00 288.00 0.00 7.00 -0.92
321.00 288.00 0.00 7.00 -0.90
322.00 288.00 0.00 7.00 -0.89
323.00 288.00 0.00 7.00 -0.87
324.00 288.00 0.00 7.00 -0.86
325.00 288.00 0.00 7.00 -0.84
326.00 288.00 0.00 7.00 -0.82
327.00 288.00 0.00 7.00 -0.81
328.00 288.00 0.00 7.00 -0.79
329.00 288.00 0.00 7.00 -0.78
330.00 288.00 0.00 7.00 -0.76
331.00 288.00 0.00 7.00 -0.75
332.00 288.00 0.00 7.00 -0.73
333.00 288.00 0.00 7.00 -0.71
334.00 288.00 0.00 7.00 -0.70
335.00 288.00 0.00 7.00 -0.68
336.00 288.00 0.00 7.00 -0.67
337.00 288.00 0.00 7.00 -0.65
338.00 288.00 0.00 7.00 -0.63
339.00 288.00 0.00 7.00 -0.62
340.00 288.00 0.00 7.00 -0.60
341.00 288.00 0.00 7.00 -0.59
342.00 288.00 0.00 7.00 -0.57
343.00 288.00 0.00 7.00 -0.56
344.00 288.00 0.00 7.00 -0.54
345.00 288.00 0.00 7.00 -0.52
346.00 288.00 0.00 7.00 -0.51
347.00 288.00 0.00 7.00 -0.49
348.00 288.00 0.00 7.00 -0.48
349.00 288.00 0.00 7.00 -0.46
350.00 288.00 0.00 7.00 -0.44
351.00 288.00 0.00 7.00 -0.43
352.00 288.00 0.00 7.00 -0.41
353.00 288.00 0.00 7.00 -0.40
354.00 288.00 0.00 7.00 -0.38
355.00 288.00 0.00 7.00 -0.37
356.00 288.00 0.00 7.00 -0.35
357.00 288.00 0.00 7.00 -0.33
358.00 288.00 0.00 7.00 -0.32
359.00 288.00 0.00 7.00 -0.30
360.00 288.00 0.00 7.00 -0.29
361.00 288.00 0.00 7.00 -0.27
362.00 288.00 0.00 7.00 -0.25
363.00 288.00 0.00 7.00 -0.24
364.00 288.00 0.00 7.00 -0.22
365.00 288.00 0.00 7.00 -0.21
366.00 288.00 0.00 7.00 -0.19
367.00 288.00 0.00 7.00 -0.17
368.00 288.00 0.00 7.00 -0.16
369.00 288.00 0.00 7.00 -0.14
370.00 288.00 0.00 7.00 -0.13
371.00 288.00 0.00 7.00 -0.11
372.00 288.00 0.00 7.00 -0.10
373.00 288.00 0.00 7.00 -0.08
374.00 288.00 0.00 7.00 -0.06
375.00 288.00 0.00 7.00 -0.05
376.00 288.00 0.00 7.00 -0.03
377.00 288.00 0.00 7.00 -0.02
378.00 288.00 0.00 7.00 0.00
379.00 288.00 0.00 7.00 0.02
380.00 288.00 0.00 7.00 0.03
381.00 288.00 0.00 7.00 0.05
382.00 288.00 0.00 7.00 0.06
383.00 288.00 0.00 7.00 0.08
384.00 288.00 0.00 7.00 0.10
385.00 288.00 0.00 7.00 0.11
386.00 288.00 0.00 7.00 0.13
387.00 288.00 0.00 7.00 0.14
388.00 288.00 0.00 7.00 0.16
389.00 288.00 0.00 7.00 0.17
390.00 288.00 0.00 7.00 0.19
391.00 288.00 0.00 7.00 0.21
392.00 288.00 0.00 7.00 0.22
393.00 288.00 0.00 7.00 0.24
394.00 288.00 0.00 7.00 0.25
395.00 288.00 0.00 7.00 0.27
396.00 288.00 0.00 7.00 0.29
397.00 288.00 0.00 7.00 0.30
398.00 288.00 0.00 7.00 0.32
399.00 288.00 0.00 7.00 0.33
400.00 288.00 0.00 7.00 0.35
401.00 288.00 0.00 7.00 0.37
402.00 288.00 0.00 7.00 0.38
403.00 288.00 0.00 7.00 0.40
404.00 288.00 0.00 7.00 0.41
405.00 288.00 0.00 7.00 0.43
406.00 288.00 0.00 7.00 0.44
407.00 288.00 0.00 7.00 0.46
408.00 288.00 0.00 7.00 0.48
409.00 288.00 0.00 7.00 0.49
410.00 288.00 0.00 7.00 0.51
411.00 288.00 0.00 7.00 0.52
412.00 288.00 0.00 7.00 0.54
413.00 288.00 0.00 7.00 0.56
414.00 288.00 0.00 7.00 0.57
415.00 288.00 0.00 7.00 0.59
416.00 288.00 0.00 7.00 0.60
417.00 288.00 0.00 7.00 0.62
418.00 288.00 0.00 7.00 0.63
419.00 288.00 0.00 7.00 0.65
420.00 288.00 0.00 7.00 0.67
421.00 288.00 0.00 7.00 0.68
422.00 288.00 0.00 7.00 0.70
423.00 288.00 0.00 7.00 0.71
424.00 288.00 0.00 7.00 0.73
425.00 288.00 0.00 7.00 0.75
426.00 288.00 0.00 7.00 0.76
427.00 288.00 0.00 7.00 0.78
428.00 288.00 0.00 7.00 0.79
429.00 288.00 0.00 7.00 0.81
430.00 288.00 0.00 7.00 0.82
431.00 288.00 0.00 7.00 0.84
432.00 288.00 0.00 7.00 0.86
433.00 288.00 0.00 7.00 0.87
434.00 288.00 0.00 7.00 0.89
435.00 288.00 0.00 7.00 0.90
436.00 288.00 0.00 7.00 0.92
437.00 288.00 0.00 7.00 0.93
438.00 288.00 0.00 7.00 0.95
439.00 288.00 0.00 7.00 0.97
440.00 288.00 0.00 7.00 0.98
441.00 288.00 0.00 7.00 1.00
442.00 288.00 0.00 7.00 1.01
443.00 288.00 0.00 7.00 1.03
444.00 288.00 0.00 7.00 1.04
445.00 288.00 0.00 7.00 1.06
446.00 288.00 0.00 7.00 1.08
447.00 288.00 0.00 7.00 1.09
448.00 288.00 0.00 7.00 1.11
449.00 288.00 0.00 7.00 1.12
450.00 288.00 0.00 7.00 1.14
451.00 288.00 0.00 7.00 1.15
452.00 288.00 0.00 7.00 1.17
453.00 288.00 0.00 7.00 1.19
454.00 288.00 0.00 7.00 1.20
455.00 288.00 0.00 7.00 1.22
456.00 288.00 0.00 7.00 1.23
457.00 288.00 0.00 7.00 1.25
458.00 288.00 0.00 7.00 1.26
459.00 288.00 0.00 7.00 1.28
460.00 288.00 0.00 7.00 1.29
461.00 288.00 0.00 7.00 1.31
462.00 288.00 0.00 7.00 1.33
463.00 288.00 0.00 7.00 1.34
464.00 288.00 0.00 7.00 1.36
465.00 288.00 0.00 7.00 1.37
466.00 288.00 0.00 7.00 1.39
467.00 288.00 0.00 7.00 1.40
468.00 288.00 0.00 7.00 1.42
469.00 288.00 0.00 7.00 1.43
470.00 288.00 0.00 7.00 1.45
471.00 288.00 0.00 7.00 1.46
472.00 288.00 0.00 7.00 1.48
473.00 288.00 0.00 7.00 1.49
474.00 288.00 0.00 7.00 1.51
475.00 288.00 0.00 7.00 1.52
476.00 288.00 0.00 7.00 1.54
477.00 288.00 0.00 7.00 1.55
478.00 288.00 0.00 7.00 1.56
479.00 288.00 0.00 7.00 1.58
480.00 288.00 0.00 7.00 1.59
481.00 288.00 0.00 7.00 1.61
482.00 288.00 0.00 7.00 1.62
483.00 288.00 0.00 7.00 1.63
484.00 288.00 0.00 7.00 1.65
485.00 288.00 0.00 7.00 1.66
486.00 288.00 0.00 7.00 1.67
487.00 288.00 0.00 7.00 1.69
488.00 288.00 0.00 7.00 1.70
489.00 288.00 0.00 7.00 1.71
490.00 288.00 0.00 7.00 1.73
491.00 288.00 0.00 7.00 1.74
492.00 288.00 0.00 7.00 1.75
493.00 288.00 0.00 7.00 1.77
494.00 288.00 0.00 7.00 1.78
495.00 288.00 0.00 7.00 1.79
496.00 288.00 0.00 7.00 1.80
497.00 288.00 0.00 7.00 1.82
498.00 288.00 0.00 7.00 1.83
499.00 288.00 0.00 7.00 1.84
500.00 288.00 0.00 7.00 1.85
501.00 288.00 0.00 7.00 1.86
502.00 288.00 0.00 7.00 1.88
503.00 288.00 0.00 7.00 1.89
504.00 288.00 0.00 7.00 1.90
505.00 288.00 0.00 7.00 1.91
506.00 288.00 0.00 7.00 1.92
507.00 288.00 0.00 7.00 1.93
508.00 288.00 0.00 7.00 1.95
509.00 288.00 0.00 7.00 1.96
510.00 288.00 0.00 7.00 1.97
511.00 288.00 0.00 7.00 1.98
512.00 288.00 0.00 7.00 1.99
513.00 288.00 0.00 7.00 2.00
514.00 288.00 0.00 7.00 2.01
515.00 288.00 0.00 7.00 2.02
516.00 288.00 0.00 7.00 2.03
517.00 288.00 0.00 7.00 2.04
518.00 288.00 0.00 7.00 2.06
519.00 288.00 0.00 7.00 2.07
520.00 288.00 0.00 7.00 2.08
521.00 288.00 0.00 7.00 2.09
522.00 288.00 0.00 7.00 2.10
523.00 288.00 0.00 7.00 2.11
524.00 288.00 0.00 7.00 2.12
525.00 288.00 0.00 7.00 2.13
526.00 288.00 0.00 7.00 2.14
527.00 288.00 0.00 7.00 2.15
528.00 288.00 0.00 7.00 2.16
529.00 288.00 0.00 7.00 2.17
530.00 288.00 0.00 7.00 2.17
531.00 288.00 0.00 7.00 2.18
532.00 288.00 0.00 7.00 2.19
533.00 288.00 0.00 7.00 2.20
534.00 288.00 0.00 7.00 2.21
535.00 288.00 0.00 7.00 2.22
536.00 288.00 0.00 7.00 2.23
537.00 288.00 0.00 7.00 2.24
538.00 288.00 0.00 7.00 2.25
539.00 288.00 0.00 7.00 2.26
540.00 288.00 0.00 7.00 2.26
541.00 288.00 0.00 7.00 2.27
542.00 288.00 0.00 7.00 2.28
543.00 288.00 0.00 7.00 2.29
544.00 288.00 0.00 7.00 2.30
545.00 288.00 0.00 7.00 2.31
546.00 288.00 0.00 7.00 2.31
547.00 288.00 0.00 7.00 2.32
548.00 288.00 0.00 7.00 2.33
549.00 288.00 0.00 7.00 2.34
550.00 288.00 0.00 7.00 2.35
551.00 288.00 0.00 7.00 2.35
552.00 288.00 0.00 7.00 2.36
553.00 288.00 0.00 7.00 2.37
554.00 288.00 0.00 7.00 2.38
555.00 288.00 0.00 7.00 2.38
556.00 288.00 0.00 7.00 2.39
557.00 288.00 0.00 7.00 2.40
558.00 288.00 0.00 7.00 2.40
559.00 288.00 0.00 7.00 2.41
560.00 288.00 0.00 7.00 2.42
561.00 288.00 0.00 7.00 2.42
562.00 288.00 0.00 7.00 2.43
563.00 288.00 0.00 7.00 2.44
564.00 288.00 0.00 7.00 2.44
565.00 288.00 0.00 7.00 2.45
566.00 288.00 0.00 7.00 2.46
567.00 288.00 0.00 7.00 2.46
568.00 288.00 0.00 7.00 2.47
569.00 288.00 0.00 7.00 2.48
570.00 288.00 0.00 7.00 2.48
571.00 288.00 0.00 7.00 2.49
572.00 288.00 0.00 7.00 2.49
573.00 288.00 0.00 7.00 2.50
574.00 288.00 0.00 7.00 2.50
575.00 288.00 0.00 7.00 2.51
576.00 288.00 0.00 7.00 2.52
577.00 288.00 0.00 7.00 2.52
578.00 288.00 0.00 7.00 2.53
579.00 288.00 0.00 7.00 2.53
580.00 288.00 0.00 7.00 2.54
581.00 288.00 0.00 7.00 2.54
582.00 288.00 0.00 7.00 2.55
583.00 288.00 0.00 7.00 2.55
584.00 288.00 0.00 7.00 2.56
585.00 288.00 0.00 7.00 2.56
586.00 288.00 0.00 7.00 2.57
587.00 288.00 0.00 7.00 2.57
588.00 288.00 0.00 7.00 2.57
589.00 288.00 0.00 7.00 2.58
590.00 288.00 0.00 7.00 2.58
591.00 288.00 0.00 7.00 2.59
592.00 288.00 0.00 7.00 2.59
593.00 288.00 0.00 7.00 2.60
594.00 288.00 0.00 7.00 2.60
595.00 288.00 0.00 7.00 2.60
596.00 288.00 0.00 7.00 2.61
597.00 288.00 0.00 7.00 2.61
598.00 288.00 0.00 7.00 2.61
599.00 288.00 0.00 7.00 2.62
600.00 288.00 0.00 7.00 2.62
601.00 288.00 0.00 7.00 2.63
602.00 288.00 0.00 7.00 2.63
603.00 288.00 0.00 7.00 2.63
604.00 288.00 0.00 7.00 2.63
605.00 288.00 0.00 7.00 2.64
606.00 288.00 0.00 7.00 2.64
607.00 288.00 0.00 7.00 2.64
608.00 288.00 0.00 7.00 2.65
609.00 288.00 0.00 7.00 2.65
610.00 288.00 0.00 7.00 2.65
611.00 288.00 0.00 7.00 2.65
612.00 288.00 0.00 7.00 2.66
613.00 288.00 0.00 7.00 2.66
614.00 288.00 0.00 7.00 2.66
615.00 288.00 0.00 7.00 2.66
616.00 288.00 0.00 7.00 2.67
617.00 288.00 0.00 7.00 2.67
618.00 288.00 0.00 7.00 2.67
619.00 288.00 0.00 7.00 2.67
620.00 288.00 0.00 7.00 2.67
621.00 288.00 0.00 7.00 2.68
622.00 288.00 0.00 7.00 2.68
623.00 288.00 0.00 7.00 2.68
624.00 288.00 0.00 7.00 2.68
625.00 288.00 0.00 7.00 2.68
626.00 288.00 0.00 7.00 2.68
627.00 288.00 0.00 7.00 2.68
628.00 288.00 0.00 7.00 2.69
629.00 288.00 0.00 7.00 2.69
630.00 288.00 0.00 7.00 2.69
631.00 288.00 0.00 7.00 2.69
632.00 288.00 0.00 7.00 2.69
633.00 288.00 0.00 7.00 2.69
634.00 288.00 0.00 7.00 2.69
635.00 288.00 0.00 7.00 2.69
636.00 288.00 0.00 7.00 2.69
637.00 288.00 0.00 7.00 2.69
638.00 288.00 0.00 7.00 2.69
639.00 288.00 0.00 7.00 2.69
640.00 288.00 0.00 7.00 2.69
641.00 288.00 0.00 7.00 2.69
642.00 288.00 0.00 7.00 2.69
643.00 288.00 0.00 7.00 2.69
644.00 288.00 0.00 7.00 2.69
645.00 288.00 0.00 7.00 2.69
646.00 288.00 0.00 7.00 2.69
647.00 288.00 0.00 7.00 2.69
648.00 288.00 0.00 7.00 2.69
649.00 288.00 0.00 7.00 2.69
650.00 288.00 0.00 7.00 2.69
651.00 288.00 0.00 7.00 2.69
652.00 288.00 0.00 7.00 2.69
653.00 288.00 0.00 7.00 2.69
654.00 288.00 0.00 7.00 2.69
655.00 288.00 0.00 7.00 2.69
656.00 288.00 0.00 7.00 2.69
657.00 288.00 0.00 7.00 2.69
658.00 288.00 0.00 7.00 2.69
659.00 288.00 0.00 7.00 2.69
660.00 288.00 0.00 7.00 2.69
661.00 288.00 0.00 7.00 2.69
662.00 288.00 0.00 7.00 2.69
663.00 288.00 0.00 7.00 2.69
664.00 288.00 0.00 7.00 2.69
665.00 288.00 0.00 7.00 2.69
666.00 288.00 0.00 7.00 2.69
667.00 288.00 0.00 7.00 2.69
668.00 288.00 0.00 7.00 2.69
669.00 288.00 0.00 7.00 2.69
670.00 288.00 0.00 7.00 2.69
671.00 288.00 0.00 7.00 2.69
672.00 288.00 0.00 7.00 2.69
673.00 288.00 0.00 7.00 2.69
674.00 288.00 0.00 7.00 2.69
675.00 288.00 0.00 7.00 2.69
676.00 288.00 0.00 7.00 2.69
677.00 288.00 0.00 7.00 2.69
678.00 288.00 0.00 7.00 2.69
679.00 288.00 0.00 7.00 2.69
680.00 288.00 0.00 7.00 2.69
681.00 288.00 0.00 7.00 2.69
682.00 288.00 0.00 7.00 2.69
683.00 288.00 0.00 7.00 2.69
684.00 288.00 0.00 7.00 2.69
685.00 288.00 0.00 7.00 2.69
686.00 288.00 0.00 7.00 2.69
687.00 288.00 0.00 7.00 2.69
688.00 288.00 0.00 7.00 2.69
689.00 288.00 0.00 7.00 2.69
690.00 288.00 0.00 7.00 2.69
691.00 288.00 0.00 7.00 2.69
692.00 288.00 0.00 7.00 2.69
693.00 288.00 0.00 7.00 2.69
694.00 288.00 0.00 7.00 2.69
695.00 288.00 0.00 7.00 2.69
696.00 288.00 0.00 7.00 2.69
697.00 288.00 0.00 7.00 2.69
698.00 288.00 0.00 7.00 2.69
699.00 288.00 0.00 7.00 2.69
700.00 288.00 0.00 7.00 2.69
701.00 288.00 0.00 7.00 2.69
702.00 288.00 0.00 7.00 2.69
703.00 288.00 0.00 7.00 2.69
704.00 288.00 0.00 7.00 2.69
705.00 288.00 0.00 7.00 2.69
706.00 288.00 0.00 7.00 2.69
707.00 288.00 0.00 7.00 2.69
708.00 288.00 0.00 7.00 2.69
709.00 288.00 0.00 7.00 2.69
710.00 288.00 0.00 7.00 2.69
711.00 288.00 0.00 7.00 2.69
712.00 288.00 0.00 7.00 2.69
713.00 288.00 0.00 7.00 2.69
714.00 288.00 0.00 7.00 2.69
715.00 288.00 0.00 7.00 2.69
716.00 288.00 0.00 7.00 2.69
717.00 288.00 0.00 7.00 2.69
718.00 288.00 0.00 7.00 2.69
719.00 288.00 0.00 7.00 2.69
720.00 288.00 0.00 7.00 2.69
721.00 288.00 0.00 7.00 2.69
722.00 288.00 0.00 7.00 2.69
723.00 288.00 0.00 7.00 2.69
724.00 288.00 0.00 7.00 2.69
725.00 288.00 0.00 7.00 2.69
726.00 288.00 0.00 7.00 2.69
727.00 288.00 0.00 7.00 2.69
728.00 288.00 0.00 7.00 2.69
729.00 288.00 0.00 7.00 2.69
730.00 288.00 0.00 7.00 2.69
731.00 288.00 0.00 7.00 2.69
732.00 288.00 0.00 7.00 2.69
733.00 288.00 0.00 7.00 2.69
734.00 288.00 0.00 7.00 2.69
735.00 288.00 0.00 7.00 2.69
736.00 288.00 0.00 7.00 2.69
737.00 288.00 0.00 7.00 2.69
738.00 288.00 0.00 7.00 2.69
739.00 288.00 0.00 7.00 2.69
740.00 288.00 0.00 7.00 2.69
741.00 288.00 0.00 7.00 2.69
742.00 288.00 0.00 7.00 2.69
743.00 288.00 0.00 7.00 2.69
744.00 288.00 0.00 7.00 2.69
745.00 288.00 0.00 7.00 2.69
746.00 288.00 0.00 7.00 2.69
747.00 288.00 0.00 7.00 2.69
748.00 288.00 0.00 7.00 2.69
749.00 288.00 0.00 7.00 2.69
750.00 288.00 0.00 7.00 2.69
751.00 288.00 0.00 7.00 2.69
752.00 288.00 0.00 7.00 2.69
753.00 288.00 0.00 7.00 2.69
754.00 288.00 0.00 7.00 2.69
755.00 288.00 0.00 7.00 2.69
756.00 288.00 0.00 7.00 2.69
757.00 288.00 0.00 7.00 2.69
758.00 288.00 0.00 7.00 2.69
759.00 288.00 0.00 7.00 2.69
760.00 288.00 0.00 7.00 2.69
761.00 288.00 0.00 7.00 2.69
762.00 288.00 0.00 7.00 2.69
763.00 288.00 0.00 7.00 2.69
764.00 288.00 0.00 7.00 2.69
765.00 288.00 0.00 7.00 2.69
766.00 288.00 0.00 7.00 2.69
767.00 288.00 0.00 7.00 2.69
768.00 288.00 0.00 7.00 2.69
769.00 288.00 0.00 7.00 2.69
770.00 288.00 0.00 7.00 2.69
771.00 288.00 0.00 7.00 2.69
772.00 288.00 0.00 7.00 2.69
773.00 288.00 0.00 7.00 2.69
774.00 288.00 0.00 7.00 2.69
775.00 288.00 0.00 7.00 2.69
776.00 288.00 0.00 7.00 2.69
777.00 288.00 0.00 7.00 2.69
778.00 288.00 0.00 7.00 2.69
779.00 288.00 0.00 7.00 2.69
780.00 288.00 0.00 7.00 2.69
781.00 288.00 0.00 7.00 2.69
782.00 288.00 0.00 7.00 2.69
783.00 288.00 0.00 7.00 2.69
784.00 288.00 0.00 7.00 2.69
785.00 288.00 0.00 7.00 2.69
786.00 288.00 0.00 7.00 2.69
787.00 288.00 0.00 7.00 2.69
788.00 288.00 0.00 7.00 2.69
789.00 288.00 0.00 7.00 2.69
790.00 288.00 0.00 7.00 2.69
791.00 288.00 0.00 7.00 2.69
792.00 288.00 0.00 7.00 2.69
793.00 288.00 0.00 7.00 2.69
794.00 288.00 0.00 7.00 2.69
795.00 288.00 0.00 7.00 2.69
796.00 288.00 0.00 7.00 2.69
797.00 288.00 0.00 7.00 2.69
798.00 288.00 0.00 7.00 2.69
799.00 288.00 0.00 7.00 2.69
800.00 288.00 0.00 7.00 2.69
801.00 288.00 0.00 7.00 2.69
802.00 288.00 0.00 7.00 2.69
803.00 288.00 0.00 7.00 2.69
804.00 288.00 0.00 7.00 2.69
805.00 288.00 0.00 7.00 2.69
806.00 288.00 0.00 7.00 2.69
807.00 288.00 0.00 7.00 2.69
808.00 288.00 0.00 7.00 2.69
809.00 288.00 0.00 7.00 2.69
810.00 288.00 0.00 7.00 2.69
811.00 288.00 0.00 7.00 2.69
812.00 288.00 0.00 7.00 2.69
813.00 288.00 0.00 7.00 2.69
814.00 288.00 0.00 7.00 2.69
815.00 288.00 0.00 7.00 2.69
816.00 288.00 0.00 7.00 2.69
817.00 288.00 0.00 7.00 2.69
818.00 288.00 0.00 7.00 2.69
819.00 288.00 0.00 7.00 2.69
820.00 288.00 0.00 7.00 2.69
821.00 288.00 0.00 7.00 2.69
822.00 288.00 0.00 7.00 2.69
823.00 288.00 0.00 7.00 2.69
824.00 288.00 0.00 7.00 2.69
825.00 288.00 0.00 7.00 2.69
826.00 288.00 0.00 7.00 2.69
827.00 288.00 0.00 7.00 2.69
828.00 288.00 0.00 7.00 2.69
829.00 288.00 0.00 7.00 2.69
830.00 288.00 0.00 7.00 2.69
831.00 288.00 0.00 7.00 2.69
