1000.00 288.00 00.00
0.00 288.00 0.00 7.00 -1.06
1.00 288.00 0.00 7.00 -1.06
2.00 288.00 0.00 7.00 -1.06
3.00 288.00 0.00 7.00 -1.06
4.00 288.00 0.00 7.00 -1.06
5.00 288.00 0.00 7.00 -1.06
6.00 288.00 0.00 7.00 -1.06
7.00 288.00 0.00 7.00 -1.06
8.00 288.00 0.00 7.00 -1.06
9.00 288.00 0.00 7.00 -1.06
10.00 288.00 0.00 7.00 -1.06
11.00 288.00 0.00 7.00 -1.06
12.00 288.00 0.00 7.00 -1.06
13.00 288.00 0.00 7.00 -1.06
14.00 288.00 0.00 7.00 -1.06
15.00 288.00 0.00 7.00 -1.06
16.00 288.00 0.00 7.00 -1.06
17.00 288.00 0.00 7.00 -1.06
18.00 288.00 0.00 7.00 -1.06
19.00 288.00 0.00 7.00 -1.06
20.00 288.00 0.00 7.00 -1.06
21.00 288.00 0.00 7.00 -1.06
22.00 288.00 0.00 7.00 -1.06
23.00 288.00 0.00 7.00 -1.06
24.00 288.00 0.00 7.00 -1.06
25.00 288.00 0.00 7.00 -1.06
26.00 288.00 0.00 7.00 -1.06
27.00 288.00 0.00 7.00 -1.06
28.00 288.00 0.00 7.00 -1.06
29.00 288.00 0.00 7.00 -1.06
30.00 288.00 0.00 7.00 -1.06
31.00 288.00 0.00 7.00 -1.06
32.00 288.00 0.00 7.00 -1.06
33.00 288.00 0.00 7.00 -1.06
34.00 288.00 0.00 7.00 -1.06
35.00 288.00 0.00 7.00 -1.06
36.00 288.00 0.00 7.00 -1.06
37.00 288.00 0.00 7.00 -1.06
38.00 288.00 0.00 7.00 -1.06
39.00 288.00 0.00 7.00 -1.06
40.00 288.00 0.00 7.00 -1.06
41.00 288.00 0.00 7.00 -1.06
42.00 288.00 0.00 7.00 -1.06
43.00 288.00 0.00 7.00 -1.06
44.00 288.00 0.00 7.00 -1.06
45.00 288.00 0.00 7.00 -1.06
46.00 288.00 0.00 7.00 -1.06
47.00 288.00 0.00 7.00 -1.06
48.00 288.00 0.00 7.00 -1.06
49.00 288.00 0.00 7.00 -1.06
50.00 288.00 0.00 7.00 -1.06
51.00 288.00 0.00 7.00 -1.06
52.00 288.00 0.00 7.00 -1.06
53.00 288.00 0.00 7.00 -1.06
54.00 288.00 0.00 7.00 -1.06
55.00 288.00 0.00 7.00 -1.06
56.00 288.00 0.00 7.00 -1.06
57.00 288.00 0.00 7.00 -1.06
58.00 288.00 0.00 7.00 -1.06
59.00 288.00 0.00 7.00 -1.06
60.00 288.00 0.00 7.00 -1.06
61.00 288.00 0.00 7.00 -1.06
62.00 288.00 0.00 7.00 -1.06
63.00 288.00 0.00 7.00 -1.06
64.00 288.00 0.00 7.00 -1.06
65.00 288.00 0.00 7.00 -1.06
66.00 288.00 0.00 7.00 -1.06
67.00 288.00 0.00 7.00 -1.06
68.00 288.00 0.00 7.00 -1.06
69.00 288.00 0.00 7.00 -1.06
70.00 288.00 0.00 7.00 -1.06
71.00 288.00 0.00 7.00 -1.06
72.00 288.00 0.00 7.00 -1.06
73.00 288.00 0.00 7.00 -1.06
74.00 288.00 0.00 7.00 -1.06
75.00 288.00 0.00 7.00 -1.06
76.00 288.00 0.00 7.00 -1.06
77.00 288.00 0.00 7.00 -1.06
78.00 288.00 0.00 7.00 -1.06
79.00 288.00 0.00 7.00 -1.06
80.00 288.00 0.00 7.00 -1.06
81.00 288.00 0.00 7.00 -1.06
82.00 288.00 0.00 7.00 -1.06
83.00 288.00 0.00 7.00 -1.06
84.00 288.00 0.00 7.00 -1.06
85.00 288.00 0.00 7.00 -1.06
86.00 288.00 0.00 7.00 -1.06
87.00 288.00 0.00 7.00 -1.06
88.00 288.00 0.00 7.00 -1.06
89.00 288.00 0.00 7.00 -1.06
90.00 288.00 0.00 7.00 -1.06
91.00 288.00 0.00 7.00 -1.06
92.00 288.00 0.00 7.00 -1.06
93.00 288.00 0.00 7.00 -1.06
94.00 288.00 0.00 7.00 -1.06
95.00 288.00 0.00 7.00 -1.06
96.00 288.00 0.00 7.00 -1.06
97.00 288.00 0.00 7.00 -1.06
98.00 288.00 0.00 7.00 -1.06
99.00 288.00 0.00 7.00 -1.06
100.00 288.00 0.00 7.00 -1.06
101.00 288.00 0.00 7.00 -1.06
102.00 288.00 0.00 7.00 -1.06
103.00 288.00 0.00 7.00 -1.06
104.00 288.00 0.00 7.00 -1.06
105.00 288.00 0.00 7.00 -1.06
106.00 288.00 0.00 7.00 -1.06
107.00 288.00 0.00 7.00 -1.06
108.00 288.00 0.00 7.00 -1.06
109.00 288.00 0.00 7.00 -1.06
110.00 288.00 0.00 7.00 -1.06
111.00 288.00 0.00 7.00 -1.06
112.00 288.00 0.00 7.00 -1.06
113.00 288.00 0.00 7.00 -1.06
114.00 288.00 0.00 7.00 -1.06
115.00 288.00 0.00 7.00 -1.06
116.00 288.00 0.00 7.00 -1.06
117.00 288.00 0.00 7.00 -1.06
118.00 288.00 0.00 7.00 -1.06
119.00 288.00 0.00 7.00 -1.06
120.00 288.00 0.00 7.00 -1.06
121.00 288.00 0.00 7.00 -1.06
122.00 288.00 0.00 7.00 -1.06
123.00 288.00 0.00 7.00 -1.06
124.00 288.00 0.00 7.00 -1.06
125.00 288.00 0.00 7.00 -1.06
126.00 288.00 0.00 7.00 -1.06
127.00 288.00 0.00 7.00 -1.06
128.00 288.00 0.00 7.00 -1.06
129.00 288.00 0.00 7.00 -1.06
130.00 288.00 0.00 7.00 -1.06
131.00 288.00 0.00 7.00 -1.06
132.00 288.00 0.00 7.00 -1.06
133.00 288.00 0.00 7.00 -1.06
134.00 288.00 0.00 7.00 -1.06
135.00 288.00 0.00 7.00 -1.06
136.00 288.00 0.00 7.00 -1.06
137.00 288.00 0.00 7.00 -1.06
138.00 288.00 0.00 7.00 -1.06
139.00 288.00 0.00 7.00 -1.05
140.00 288.00 0.00 7.00 -1.05
141.00 288.00 0.00 7.00 -1.05
142.00 288.00 0.00 7.00 -1.05
143.00 288.00 0.00 7.00 -1.05
144.00 288.00 0.00 7.00 -1.05
145.00 288.00 0.00 7.00 -1.05
146.00 288.00 0.00 7.00 -1.05
147.00 288.00 0.00 7.00 -1.05
148.00 288.00 0.00 7.00 -1.05
149.00 288.00 0.00 7.00 -1.04
150.00 288.00 0.00 7.00 -1.04
151.00 288.00 0.00 7.00 -1.04
152.00 288.00 0.00 7.00 -1.04
153.00 288.00 0.00 7.00 -1.04
154.00 288.00 0.00 7.00 -1.04
155.00 288.00 0.00 7.00 -1.04
156.00 288.00 0.00 7.00 -1.03
157.00 288.00 0.00 7.00 -1.03
158.00 288.00 0.00 7.00 -1.03
159.00 288.00 0.00 7.00 -1.03
160.00 288.00 0.00 7.00 -1.03
161.00 288.00 0.00 7.00 -1.03
162.00 288.00 0.00 7.00 -1.03
163.00 288.00 0.00 7.00 -1.02
164.00 288.00 0.00 7.00 -1.02
165.00 288.00 0.00 7.00 -1.02
166.00 288.00 0.00 7.00 -1.02
167.00 288.00 0.00 7.00 -1.02
168.00 288.00 0.00 7.00 -1.02
169.00 288.00 0.00 7.00 -1.01
170.00 288.00 0.00 7.00 -1.01
171.00 288.00 0.00 7.00 -1.01
172.00 288.00 0.00 7.00 -1.01
173.00 288.00 0.00 7.00 -1.01
174.00 288.00 0.00 7.00 -1.00
175.00 288.00 0.00 7.00 -1.00
176.00 288.00 0.00 7.00 -1.00
177.00 288.00 0.00 7.00 -1.00
178.00 288.00 0.00 7.00 -1.00
179.00 288.00 0.00 7.00 -0.99
180.00 288.00 0.00 7.00 -0.99
181.00 288.00 0.00 7.00 -0.99
182.00 288.00 0.00 7.00 -0.99
183.00 288.00 0.00 7.00 -0.98
184.00 288.00 0.00 7.00 -0.98
185.00 288.00 0.00 7.00 -0.98
186.00 288.00 0.00 7.00 -0.98
187.00 288.00 0.00 7.00 -0.97
188.00 288.00 0.00 7.00 -0.97
189.00 288.00 0.00 7.00 -0.97
190.00 288.00 0.00 7.00 -0.97
191.00 288.00 0.00 7.00 -0.96
192.00 288.00 0.00 7.00 -0.96
193.00 288.00 0.00 7.00 -0.96
194.00 288.00 0.00 7.00 -0.96
195.00 288.00 0.00 7.00 -0.95
196.00 288.00 0.00 7.00 -0.95
197.00 288.00 0.00 7.00 -0.95
198.00 288.00 0.00 7.00 -0.95
199.00 288.00 0.00 7.00 -0.94
200.00 288.00 0.00 7.00 -0.94
201.00 288.00 0.00 7.00 -0.94
202.00 288.00 0.00 7.00 -0.93
203.00 288.00 0.00 7.00 -0.93
204.00 288.00 0.00 7.00 -0.93
205.00 288.00 0.00 7.00 -0.92
206.00 288.00 0.00 7.00 -0.92
207.00 288.00 0.00 7.00 -0.92
208.00 288.00 0.00 7.00 -0.92
209.00 288.00 0.00 7.00 -0.91
210.00 288.00 0.00 7.00 -0.91
211.00 288.00 0.00 7.00 -0.91
212.00 288.00 0.00 7.00 -0.90
213.00 288.00 0.00 7.00 -0.90
214.00 288.00 0.00 7.00 -0.90
215.00 288.00 0.00 7.00 -0.89
216.00 288.00 0.00 7.00 -0.89
217.00 288.00 0.00 7.00 -0.89
218.00 288.00 0.00 7.00 -0.88
219.00 288.00 0.00 7.00 -0.88
220.00 288.00 0.00 7.00 -0.87
221.00 288.00 0.00 7.00 -0.87
222.00 288.00 0.00 7.00 -0.87
223.00 288.00 0.00 7.00 -0.86
224.00 288.00 0.00 7.00 -0.86
225.00 288.00 0.00 7.00 -0.86
226.00 288.00 0.00 7.00 -0.85
227.00 288.00 0.00 7.00 -0.85
228.00 288.00 0.00 7.00 -0.84
229.00 288.00 0.00 7.00 -0.84
230.00 288.00 0.00 7.00 -0.84
231.00 288.00 0.00 7.00 -0.83
232.00 288.00 0.00 7.00 -0.83
233.00 288.00 0.00 7.00 -0.83
234.00 288.00 0.00 7.00 -0.82
235.00 288.00 0.00 7.00 -0.82
236.00 288.00 0.00 7.00 -0.81
237.00 288.00 0.00 7.00 -0.81
238.00 288.00 0.00 7.00 -0.80
239.00 288.00 0.00 7.00 -0.80
240.00 288.00 0.00 7.00 -0.80
241.00 288.00 0.00 7.00 -0.79
242.00 288.00 0.00 7.00 -0.79
243.00 288.00 0.00 7.00 -0.78
244.00 288.00 0.00 7.00 -0.78
245.00 288.00 0.00 7.00 -0.77
246.00 288.00 0.00 7.00 -0.77
247.00 288.00 0.00 7.00 -0.77
248.00 288.00 0.00 7.00 -0.76
249.00 288.00 0.00 7.00 -0.76
250.00 288.00 0.00 7.00 -0.75
251.00 288.00 0.00 7.00 -0.75
252.00 288.00 0.00 7.00 -0.74
253.00 288.00 0.00 7.00 -0.74
254.00 288.00 0.00 7.00 -0.73
255.00 288.00 0.00 7.00 -0.73
256.00 288.00 0.00 7.00 -0.72
257.00 288.00 0.00 7.00 -0.72
258.00 288.00 0.00 7.00 -0.71
259.00 288.00 0.00 7.00 -0.71
260.00 288.00 0.00 7.00 -0.70
261.00 288.00 0.00 7.00 -0.70
262.00 288.00 0.00 7.00 -0.69
263.00 288.00 0.00 7.00 -0.69
264.00 288.00 0.00 7.00 -0.68
265.00 288.00 0.00 7.00 -0.68
266.00 288.00 0.00 7.00 -0.67
267.00 288.00 0.00 7.00 -0.67
268.00 288.00 0.00 7.00 -0.66
269.00 288.00 0.00 7.00 -0.66
270.00 288.00 0.00 7.00 -0.65
271.00 288.00 0.00 7.00 -0.65
272.00 288.00 0.00 7.00 -0.64
273.00 288.00 0.00 7.00 -0.64
274.00 288.00 0.00 7.00 -0.63
275.00 288.00 0.00 7.00 -0.63
276.00 288.00 0.00 7.00 -0.62
277.00 288.00 0.00 7.00 -0.61
278.00 288.00 0.00 7.00 -0.61
279.00 288.00 0.00 7.00 -0.60
280.00 288.00 0.00 7.00 -0.60
281.00 288.00 0.00 7.00 -0.59
282.00 288.00 0.00 7.00 -0.59
283.00 288.00 0.00 7.00 -0.58
284.00 288.00 0.00 7.00 -0.57
285.00 288.00 0.00 7.00 -0.57
286.00 288.00 0.00 7.00 -0.56
287.00 288.00 0.00 7.00 -0.56
288.00 288.00 0.00 7.00 -0.55
289.00 288.00 0.00 7.00 -0.55
290.00 288.00 0.00 7.00 -0.54
291.00 288.00 0.00 7.00 -0.53
292.00 288.00 0.00 7.00 -0.53
293.00 288.00 0.00 7.00 -0.52
294.00 288.00 0.00 7.00 -0.52
295.00 288.00 0.00 7.00 -0.51
296.00 288.00 0.00 7.00 -0.50
297.00 288.00 0.00 7.00 -0.50
298.00 288.00 0.00 7.00 -0.49
299.00 288.00 0.00 7.00 -0.48
300.00 288.00 0.00 7.00 -0.48
301.00 288.00 0.00 7.00 -0.47
302.00 288.00 0.00 7.00 -0.47
303.00 288.00 0.00 7.00 -0.46
304.00 288.00 0.00 7.00 -0.45
305.00 288.00 0.00 7.00 -0.45
306.00 288.00 0.00 7.00 -0.44
307.00 288.00 0.00 7.00 -0.44
308.00 288.00 0.00 7.00 -0.43
309.00 288.00 0.00 7.00 -0.42
310.00 288.00 0.00 7.00 -0.42
311.00 288.00 0.00 7.00 -0.41
312.00 288.00 0.00 7.00 -0.40
313.00 288.00 0.00 7.00 -0.40
314.00 288.00 0.00 7.00 -0.39
315.00 288.00 0.00 7.00 -0.39
316.00 288.00 0.00 7.00 -0.38
317.00 288.00 0.00 7.00 -0.37
318.00 288.00 0.00 7.00 -0.37
319.00 288.00 0.00 7.00 -0.36
320.00 288.00 0.00 7.00 -0.36
321.00 288.00 0.00 7.00 -0.35
322.00 288.00 0.00 7.00 -0.34
323.00 288.00 0.00 7.00 -0.34
324.00 288.00 0.00 7.00 -0.33
325.00 288.00 0.00 7.00 -0.33
326.00 288.00 0.00 7.00 -0.32
327.00 288.00 0.00 7.00 -0.31
328.00 288.00 0.00 7.00 -0.31
329.00 288.00 0.00 7.00 -0.30
330.00 288.00 0.00 7.00 -0.29
331.00 288.00 0.00 7.00 -0.29
332.00 288.00 0.00 7.00 -0.28
333.00 288.00 0.00 7.00 -0.28
334.00 288.00 0.00 7.00 -0.27
335.00 288.00 0.00 7.00 -0.26
336.00 288.00 0.00 7.00 -0.26
337.00 288.00 0.00 7.00 -0.25
338.00 288.00 0.00 7.00 -0.25
339.00 288.00 0.00 7.00 -0.24
340.00 288.00 0.00 7.00 -0.23
341.00 288.00 0.00 7.00 -0.23
342.00 288.00 0.00 7.00 -0.22
343.00 288.00 0.00 7.00 -0.21
344.00 288.00 0.00 7.00 -0.21
345.00 288.00 0.00 7.00 -0.20
346.00 288.00 0.00 7.00 -0.20
347.00 288.00 0.00 7.00 -0.19
348.00 288.00 0.00 7.00 -0.18
349.00 288.00 0.00 7.00 -0.18
350.00 288.00 0.00 7.00 -0.17
351.00 288.00 0.00 7.00 -0.17
352.00 288.00 0.00 7.00 -0.16
353.00 288.00 0.00 7.00 -0.15
354.00 288.00 0.00 7.00 -0.15
355.00 288.00 0.00 7.00 -0.14
356.00 288.00 0.00 7.00 -0.14
357.00 288.00 0.00 7.00 -0.13
358.00 288.00 0.00 7.00 -0.12
359.00 288.00 0.00 7.00 -0.12
360.00 288.00 0.00 7.00 -0.11
361.00 288.00 0.00 7.00 -0.10
362.00 288.00 0.00 7.00 -0.10
363.00 288.00 0.00 7.00 -0.09
364.00 288.00 0.00 7.00 -0.09
365.00 288.00 0.00 7.00 -0.08
366.00 288.00 0.00 7.00 -0.07
367.00 288.00 0.00 7.00 -0.07
368.00 288.00 0.00 7.00 -0.06
369.00 288.00 0.00 7.00 -0.06
370.00 288.00 0.00 7.00 -0.05
371.00 288.00 0.00 7.00 -0.04
372.00 288.00 0.00 7.00 -0.04
373.00 288.00 0.00 7.00 -0.03
374.00 288.00 0.00 7.00 -0.02
375.00 288.00 0.00 7.00 -0.02
376.00 288.00 0.00 7.00 -0.01
377.00 288.00 0.00 7.00 -0.01
378.00 288.00 0.00 7.00 0.00
379.00 288.00 0.00 7.00 0.01
380.00 288.00 0.00 7.00 0.01
381.00 288.00 0.00 7.00 0.02
382.00 288.00 0.00 7.00 0.02
383.00 288.00 0.00 7.00 0.03
384.00 288.00 0.00 7.00 0.04
385.00 288.00 0.00 7.00 0.04
386.00 288.00 0.00 7.00 0.05
387.00 288.00 0.00 7.00 0.06
388.00 288.00 0.00 7.00 0.06
389.00 288.00 0.00 7.00 0.07
390.00 288.00 0.00 7.00 0.07
391.00 288.00 0.00 7.00 0.08
392.00 288.00 0.00 7.00 0.09
393.00 288.00 0.00 7.00 0.09
394.00 288.00 0.00 7.00 0.10
395.00 288.00 0.00 7.00 0.10
396.00 288.00 0.00 7.00 0.11
397.00 288.00 0.00 7.00 0.12
398.00 288.00 0.00 7.00 0.12
399.00 288.00 0.00 7.00 0.13
400.00 288.00 0.00 7.00 0.14
401.00 288.00 0.00 7.00 0.14
402.00 288.00 0.00 7.00 0.15
403.00 288.00 0.00 7.00 0.15
404.00 288.00 0.00 7.00 0.16
405.00 288.00 0.00 7.00 0.17
406.00 288.00 0.00 7.00 0.17
407.00 288.00 0.00 7.00 0.18
408.00 288.00 0.00 7.00 0.18
409.00 288.00 0.00 7.00 0.19
410.00 288.00 0.00 7.00 0.20
411.00 288.00 0.00 7.00 0.20
412.00 288.00 0.00 7.00 0.21
413.00 288.00 0.00 7.00 0.21
414.00 288.00 0.00 7.00 0.22
415.00 288.00 0.00 7.00 0.23
416.00 288.00 0.00 7.00 0.23
417.00 288.00 0.00 7.00 0.24
418.00 288.00 0.00 7.00 0.25
419.00 288.00 0.00 7.00 0.25
420.00 288.00 0.00 7.00 0.26
421.00 288.00 0.00 7.00 0.26
422.00 288.00 0.00 7.00 0.27
423.00 288.00 0.00 7.00 0.28
424.00 288.00 0.00 7.00 0.28
425.00 288.00 0.00 7.00 0.29
426.00 288.00 0.00 7.00 0.29
427.00 288.00 0.00 7.00 0.30
428.00 288.00 0.00 7.00 0.31
429.00 288.00 0.00 7.00 0.31
430.00 288.00 0.00 7.00 0.32
431.00 288.00 0.00 7.00 0.33
432.00 288.00 0.00 7.00 0.33
433.00 288.00 0.00 7.00 0.34
434.00 288.00 0.00 7.00 0.34
435.00 288.00 0.00 7.00 0.35
436.00 288.00 0.00 7.00 0.36
437.00 288.00 0.00 7.00 0.36
438.00 288.00 0.00 7.00 0.37
439.00 288.00 0.00 7.00 0.37
440.00 288.00 0.00 7.00 0.38
441.00 288.00 0.00 7.00 0.39
442.00 288.00 0.00 7.00 0.39
443.00 288.00 0.00 7.00 0.40
444.00 288.00 0.00 7.00 0.40
445.00 288.00 0.00 7.00 0.41
446.00 288.00 0.00 7.00 0.42
447.00 288.00 0.00 7.00 0.42
448.00 288.00 0.00 7.00 0.43
449.00 288.00 0.00 7.00 0.44
450.00 288.00 0.00 7.00 0.44
451.00 288.00 0.00 7.00 0.45
452.00 288.00 0.00 7.00 0.45
453.00 288.00 0.00 7.00 0.46
454.00 288.00 0.00 7.00 0.47
455.00 288.00 0.00 7.00 0.47
456.00 288.00 0.00 7.00 0.48
457.00 288.00 0.00 7.00 0.48
458.00 288.00 0.00 7.00 0.49
459.00 288.00 0.00 7.00 0.50
460.00 288.00 0.00 7.00 0.50
461.00 288.00 0.00 7.00 0.51
462.00 288.00 0.00 7.00 0.52
463.00 288.00 0.00 7.00 0.52
464.00 288.00 0.00 7.00 0.53
465.00 288.00 0.00 7.00 0.53
466.00 288.00 0.00 7.00 0.54
467.00 288.00 0.00 7.00 0.55
468.00 288.00 0.00 7.00 0.55
469.00 288.00 0.00 7.00 0.56
470.00 288.00 0.00 7.00 0.56
471.00 288.00 0.00 7.00 0.57
472.00 288.00 0.00 7.00 0.57
473.00 288.00 0.00 7.00 0.58
474.00 288.00 0.00 7.00 0.59
475.00 288.00 0.00 7.00 0.59
476.00 288.00 0.00 7.00 0.60
477.00 288.00 0.00 7.00 0.60
478.00 288.00 0.00 7.00 0.61
479.00 288.00 0.00 7.00 0.61
480.00 288.00 0.00 7.00 0.62
481.00 288.00 0.00 7.00 0.63
482.00 288.00 0.00 7.00 0.63
483.00 288.00 0.00 7.00 0.64
484.00 288.00 0.00 7.00 0.64
485.00 288.00 0.00 7.00 0.65
486.00 288.00 0.00 7.00 0.65
487.00 288.00 0.00 7.00 0.66
488.00 288.00 0.00 7.00 0.66
489.00 288.00 0.00 7.00 0.67
490.00 288.00 0.00 7.00 0.67
491.00 288.00 0.00 7.00 0.68
492.00 288.00 0.00 7.00 0.68
493.00 288.00 0.00 7.00 0.69
494.00 288.00 0.00 7.00 0.69
495.00 288.00 0.00 7.00 0.70
496.00 288.00 0.00 7.00 0.70
497.00 288.00 0.00 7.00 0.71
498.00 288.00 0.00 7.00 0.71
499.00 288.00 0.00 7.00 0.72
500.00 288.00 0.00 7.00 0.72
501.00 288.00 0.00 7.00 0.73
502.00 288.00 0.00 7.00 0.73
503.00 288.00 0.00 7.00 0.74
504.00 288.00 0.00 7.00 0.74
505.00 288.00 0.00 7.00 0.75
506.00 288.00 0.00 7.00 0.75
507.00 288.00 0.00 7.00 0.76
508.00 288.00 0.00 7.00 0.76
509.00 288.00 0.00 7.00 0.77
510.00 288.00 0.00 7.00 0.77
511.00 288.00 0.00 7.00 0.77
512.00 288.00 0.00 7.00 0.78
513.00 288.00 0.00 7.00 0.78
514.00 288.00 0.00 7.00 0.79
515.00 288.00 0.00 7.00 0.79
516.00 288.00 0.00 7.00 0.80
517.00 288.00 0.00 7.00 0.80
518.00 288.00 0.00 7.00 0.80
519.00 288.00 0.00 7.00 0.81
520.00 288.00 0.00 7.00 0.81
521.00 288.00 0.00 7.00 0.82
522.00 288.00 0.00 7.00 0.82
523.00 288.00 0.00 7.00 0.83
524.00 288.00 0.00 7.00 0.83
525.00 288.00 0.00 7.00 0.83
526.00 288.00 0.00 7.00 0.84
527.00 288.00 0.00 7.00 0.84
528.00 288.00 0.00 7.00 0.84
529.00 288.00 0.00 7.00 0.85
530.00 288.00 0.00 7.00 0.85
531.00 288.00 0.00 7.00 0.86
532.00 288.00 0.00 7.00 0.86
533.00 288.00 0.00 7.00 0.86
534.00 288.00 0.00 7.00 0.87
535.00 288.00 0.00 7.00 0.87
536.00 288.00 0.00 7.00 0.87
537.00 288.00 0.00 7.00 0.88
538.00 288.00 0.00 7.00 0.88
539.00 288.00 0.00 7.00 0.89
540.00 288.00 0.00 7.00 0.89
541.00 288.00 0.00 7.00 0.89
542.00 288.00 0.00 7.00 0.90
543.00 288.00 0.00 7.00 0.90
544.00 288.00 0.00 7.00 0.90
545.00 288.00 0.00 7.00 0.91
546.00 288.00 0.00 7.00 0.91
547.00 288.00 0.00 7.00 0.91
548.00 288.00 0.00 7.00 0.92
549.00 288.00 0.00 7.00 0.92
550.00 288.00 0.00 7.00 0.92
551.00 288.00 0.00 7.00 0.92
552.00 288.00 0.00 7.00 0.93
553.00 288.00 0.00 7.00 0.93
554.00 288.00 0.00 7.00 0.93
555.00 288.00 0.00 7.00 0.94
556.00 288.00 0.00 7.00 0.94
557.00 288.00 0.00 7.00 0.94
558.00 288.00 0.00 7.00 0.95
559.00 288.00 0.00 7.00 0.95
560.00 288.00 0.00 7.00 0.95
561.00 288.00 0.00 7.00 0.95
562.00 288.00 0.00 7.00 0.96
563.00 288.00 0.00 7.00 0.96
564.00 288.00 0.00 7.00 0.96
565.00 288.00 0.00 7.00 0.96
566.00 288.00 0.00 7.00 0.97
567.00 288.00 0.00 7.00 0.97
568.00 288.00 0.00 7.00 0.97
569.00 288.00 0.00 7.00 0.97
570.00 288.00 0.00 7.00 0.98
571.00 288.00 0.00 7.00 0.98
572.00 288.00 0.00 7.00 0.98
573.00 288.00 0.00 7.00 0.98
574.00 288.00 0.00 7.00 0.99
575.00 288.00 0.00 7.00 0.99
576.00 288.00 0.00 7.00 0.99
577.00 288.00 0.00 7.00 0.99
578.00 288.00 0.00 7.00 1.00
579.00 288.00 0.00 7.00 1.00
580.00 288.00 0.00 7.00 1.00
581.00 288.00 0.00 7.00 1.00
582.00 288.00 0.00 7.00 1.00
583.00 288.00 0.00 7.00 1.01
584.00 288.00 0.00 7.00 1.01
585.00 288.00 0.00 7.00 1.01
586.00 288.00 0.00 7.00 1.01
587.00 288.00 0.00 7.00 1.01
588.00 288.00 0.00 7.00 1.02
589.00 288.00 0.00 7.00 1.02
590.00 288.00 0.00 7.00 1.02
591.00 288.00 0.00 7.00 1.02
592.00 288.00 0.00 7.00 1.02
593.00 288.00 0.00 7.00 1.02
594.00 288.00 0.00 7.00 1.03
595.00 288.00 0.00 7.00 1.03
596.00 288.00 0.00 7.00 1.03
597.00 288.00 0.00 7.00 1.03
598.00 288.00 0.00 7.00 1.03
599.00 288.00 0.00 7.00 1.03
600.00 288.00 0.00 7.00 1.03
601.00 288.00 0.00 7.00 1.04
602.00 288.00 0.00 7.00 1.04
603.00 288.00 0.00 7.00 1.04
604.00 288.00 0.00 7.00 1.04
605.00 288.00 0.00 7.00 1.04
606.00 288.00 0.00 7.00 1.04
607.00 288.00 0.00 7.00 1.04
608.00 288.00 0.00 7.00 1.05
609.00 288.00 0.00 7.00 1.05
610.00 288.00 0.00 7.00 1.05
611.00 288.00 0.00 7.00 1.05
612.00 288.00 0.00 7.00 1.05
613.00 288.00 0.00 7.00 1.05
614.00 288.00 0.00 7.00 1.05
615.00 288.00 0.00 7.00 1.05
616.00 288.00 0.00 7.00 1.05
617.00 288.00 0.00 7.00 1.05
618.00 288.00 0.00 7.00 1.06
619.00 288.00 0.00 7.00 1.06
620.00 288.00 0.00 7.00 1.06
621.00 288.00 0.00 7.00 1.06
622.00 288.00 0.00 7.00 1.06
623.00 288.00 0.00 7.00 1.06
624.00 288.00 0.00 7.00 1.06
625.00 288.00 0.00 7.00 1.06
626.00 288.00 0.00 7.00 1.06
627.00 288.00 0.00 7.00 1.06
628.00 288.00 0.00 7.00 1.06
629.00 288.00 0.00 7.00 1.06
630.00 288.00 0.00 7.00 1.06
631.00 288.00 0.00 7.00 1.06
632.00 288.00 0.00 7.00 1.06
633.00 288.00 0.00 7.00 1.06
634.00 288.00 0.00 7.00 1.06
635.00 288.00 0.00 7.00 1.06
636.00 288.00 0.00 7.00 1.06
637.00 288.00 0.00 7.00 1.06
638.00 288.00 0.00 7.00 1.06
639.00 288.00 0.00 7.00 1.06
640.00 288.00 0.00 7.00 1.06
641.00 288.00 0.00 7.00 1.06
642.00 288.00 0.00 7.00 1.06
643.00 288.00 0.00 7.00 1.06
644.00 288.00 0.00 7.00 1.06
645.00 288.00 0.00 7.00 1.06
646.00 288.00 0.00 7.00 1.06
647.00 288.00 0.00 7.00 1.06
648.00 288.00 0.00 7.00 1.06
649.00 288.00 0.00 7.00 1.06
650.00 288.00 0.00 7.00 1.06
651.00 288.00 0.00 7.00 1.06
652.00 288.00 0.00 7.00 1.06
653.00 288.00 0.00 7.00 1.06
654.00 288.00 0.00 7.00 1.06
655.00 288.00 0.00 7.00 1.06
656.00 288.00 0.00 7.00 1.06
657.00 288.00 0.00 7.00 1.06
658.00 288.00 0.00 7.00 1.06
659.00 288.00 0.00 7.00 1.06
660.00 288.00 0.00 7.00 1.06
661.00 288.00 0.00 7.00 1.06
662.00 288.00 0.00 7.00 1.06
663.00 288.00 0.00 7.00 1.06
664.00 288.00 0.00 7.00 1.06
665.00 288.00 0.00 7.00 1.06
666.00 288.00 0.00 7.00 1.06
667.00 288.00 0.00 7.00 1.06
668.00 288.00 0.00 7.00 1.06
669.00 288.00 0.00 7.00 1.06
670.00 288.00 0.00 7.00 1.06
671.00 288.00 0.00 7.00 1.06
672.00 288.00 0.00 7.00 1.06
673.00 288.00 0.00 7.00 1.06
674.00 288.00 0.00 7.00 1.06
675.00 288.00 0.00 7.00 1.06
676.00 288.00 0.00 7.00 1.06
677.00 288.00 0.00 7.00 1.06
678.00 288.00 0.00 7.00 1.06
679.00 288.00 0.00 7.00 1.06
680.00 288.00 0.00 7.00 1.06
681.00 288.00 0.00 7.00 1.06
682.00 288.00 0.00 7.00 1.06
683.00 288.00 0.00 7.00 1.06
684.00 288.00 0.00 7.00 1.06
685.00 288.00 0.00 7.00 1.06
686.00 288.00 0.00 7.00 1.06
687.00 288.00 0.00 7.00 1.06
688.00 288.00 0.00 7.00 1.06
689.00 288.00 0.00 7.00 1.06
690.00 288.00 0.00 7.00 1.06
691.00 288.00 0.00 7.00 1.06
692.00 288.00 0.00 7.00 1.06
693.00 288.00 0.00 7.00 1.06
694.00 288.00 0.00 7.00 1.06
695.00 288.00 0.00 7.00 1.06
696.00 288.00 0.00 7.00 1.06
697.00 288.00 0.00 7.00 1.06
698.00 288.00 0.00 7.00 1.06
699.00 288.00 0.00 7.00 1.06
700.00 288.00 0.00 7.00 1.06
701.00 288.00 0.00 7.00 1.06
702.00 288.00 0.00 7.00 1.06
703.00 288.00 0.00 7.00 1.06
704.00 288.00 0.00 7.00 1.06
705.00 288.00 0.00 7.00 1.06
706.00 288.00 0.00 7.00 1.06
707.00 288.00 0.00 7.00 1.06
708.00 288.00 0.00 7.00 1.06
709.00 288.00 0.00 7.00 1.06
710.00 288.00 0.00 7.00 1.06
711.00 288.00 0.00 7.00 1.06
712.00 288.00 0.00 7.00 1.06
713.00 288.00 0.00 7.00 1.06
714.00 288.00 0.00 7.00 1.06
715.00 288.00 0.00 7.00 1.06
716.00 288.00 0.00 7.00 1.06
717.00 288.00 0.00 7.00 1.06
718.00 288.00 0.00 7.00 1.06
719.00 288.00 0.00 7.00 1.06
720.00 288.00 0.00 7.00 1.06
721.00 288.00 0.00 7.00 1.06
722.00 288.00 0.00 7.00 1.06
723.00 288.00 0.00 7.00 1.06
724.00 288.00 0.00 7.00 1.06
725.00 288.00 0.00 7.00 1.06
726.00 288.00 0.00 7.00 1.06
727.00 288.00 0.00 7.00 1.06
728.00 288.00 0.00 7.00 1.06
729.00 288.00 0.00 7.00 1.06
730.00 288.00 0.00 7.00 1.06
731.00 288.00 0.00 7.00 1.06
732.00 288.00 0.00 7.00 1.06
733.00 288.00 0.00 7.00 1.06
734.00 288.00 0.00 7.00 1.06
735.00 288.00 0.00 7.00 1.06
736.00 288.00 0.00 7.00 1.06
737.00 288.00 0.00 7.00 1.06
738.00 288.00 0.00 7.00 1.06
739.00 288.00 0.00 7.00 1.06
740.00 288.00 0.00 7.00 1.06
741.00 288.00 0.00 7.00 1.06
742.00 288.00 0.00 7.00 1.06
743.00 288.00 0.00 7.00 1.06
744.00 288.00 0.00 7.00 1.06
745.00 288.00 0.00 7.00 1.06
746.00 288.00 0.00 7.00 1.06
747.00 288.00 0.00 7.00 1.06
748.00 288.00 0.00 7.00 1.06
749.00 288.00 0.00 7.00 1.06
750.00 288.00 0.00 7.00 1.06
751.00 288.00 0.00 7.00 1.06
752.00 288.00 0.00 7.00 1.06
753.00 288.00 0.00 7.00 1.06
754.00 288.00 0.00 7.00 1.06
755.00 288.00 0.00 7.00 1.06
756.00 288.00 0.00 7.00 1.06
757.00 288.00 0.00 7.00 1.06
758.00 288.00 0.00 7.00 1.06
759.00 288.00 0.00 7.00 1.06
760.00 288.00 0.00 7.00 1.06
761.00 288.00 0.00 7.00 1.06
762.00 288.00 0.00 7.00 1.06
763.00 288.00 0.00 7.00 1.06
764.00 288.00 0.00 7.00 1.06
765.00 288.00 0.00 7.00 1.06
766.00 288.00 0.00 7.00 1.06
767.00 288.00 0.00 7.00 1.06
768.00 288.00 0.00 7.00 1.06
769.00 288.00 0.00 7.00 1.06
770.00 288.00 0.00 7.00 1.06
771.00 288.00 0.00 7.00 1.06
772.00 288.00 0.00 7.00 1.06
773.00 288.00 0.00 7.00 1.06
774.00 288.00 0.00 7.00 1.06
775.00 288.00 0.00 7.00 1.06
776.00 288.00 0.00 7.00 1.06
777.00 288.00 0.00 7.00 1.06
778.00 288.00 0.00 7.00 1.06
779.00 288.00 0.00 7.00 1.06
780.00 288.00 0.00 7.00 1.06
781.00 288.00 0.00 7.00 1.06
782.00 288.00 0.00 7.00 1.06
783.00 288.00 0.00 7.00 1.06
784.00 288.00 0.00 7.00 1.06
785.00 288.00 0.00 7.00 1.06
786.00 288.00 0.00 7.00 1.06
787.00 288.00 0.00 7.00 1.06
788.00 288.00 0.00 7.00 1.06
789.00 288.00 0.00 7.00 1.06
790.00 288.00 0.00 7.00 1.06
791.00 288.00 0.00 7.00 1.06
792.00 288.00 0.00 7.00 1.06
793.00 288.00 0.00 7.00 1.06
794.00 288.00 0.00 7.00 1.06
795.00 288.00 0.00 7.00 1.06
796.00 288.00 0.00 7.00 1.06
797.00 288.00 0.00 7.00 1.06
798.00 288.00 0.00 7.00 1.06
799.00 288.00 0.00 7.00 1.06
800.00 288.00 0.00 7.00 1.06
801.00 288.00 0.00 7.00 1.06
802.00 288.00 0.00 7.00 1.06
803.00 288.00 0.00 7.00 1.06
804.00 288.00 0.00 7.00 1.06
805.00 288.00 0.00 7.00 1.06
806.00 288.00 0.00 7.00 1.06
807.00 288.00 0.00 7.00 1.06
808.00 288.00 0.00 7.00 1.06
809.00 288.00 0.00 7.00 1.06
810.00 288.00 0.00 7.00 1.06
811.00 288.00 0.00 7.00 1.06
812.00 288.00 0.00 7.00 1.06
813.00 288.00 0.00 7.00 1.06
814.00 288.00 0.00 7.00 1.06
815.00 288.00 0.00 7.00 1.06
816.00 288.00 0.00 7.00 1.06
817.00 288.00 0.00 7.00 1.06
818.00 288.00 0.00 7.00 1.06
819.00 288.00 0.00 7.00 1.06
820.00 288.00 0.00 7.00 1.06
821.00 288.00 0.00 7.00 1.06
822.00 288.00 0.00 7.00 1.06
823.00 288.00 0.00 7.00 1.06
824.00 288.00 0.00 7.00 1.06
825.00 288.00 0.00 7.00 1.06
826.00 288.00 0.00 7.00 1.06
827.00 288.00 0.00 7.00 1.06
828.00 288.00 0.00 7.00 1.06
829.00 288.00 0.00 7.00 1.06
830.00 288.00 0.00 7.00 1.06
831.00 288.00 0.00 7.00 1.06
