1000.00 288.00 00.00
0.00 288.00 0.00 7.00 1.51
1.00 288.00 0.00 7.00 1.51
2.00 288.00 0.00 7.00 1.51
3.00 288.00 0.00 7.00 1.51
4.00 288.00 0.00 7.00 1.51
5.00 288.00 0.00 7.00 1.51
6.00 288.00 0.00 7.00 1.51
7.00 288.00 0.00 7.00 1.51
8.00 288.00 0.00 7.00 1.51
9.00 288.00 0.00 7.00 1.51
10.00 288.00 0.00 7.00 1.51
11.00 288.00 0.00 7.00 1.51
12.00 288.00 0.00 7.00 1.51
13.00 288.00 0.00 7.00 1.51
14.00 288.00 0.00 7.00 1.51
15.00 288.00 0.00 7.00 1.51
16.00 288.00 0.00 7.00 1.51
17.00 288.00 0.00 7.00 1.51
18.00 288.00 0.00 7.00 1.51
19.00 288.00 0.00 7.00 1.51
20.00 288.00 0.00 7.00 1.51
21.00 288.00 0.00 7.00 1.51
22.00 288.00 0.00 7.00 1.51
23.00 288.00 0.00 7.00 1.51
24.00 288.00 0.00 7.00 1.51
25.00 288.00 0.00 7.00 1.51
26.00 288.00 0.00 7.00 1.51
27.00 288.00 0.00 7.00 1.51
28.00 288.00 0.00 7.00 1.51
29.00 288.00 0.00 7.00 1.51
30.00 288.00 0.00 7.00 1.51
31.00 288.00 0.00 7.00 1.51
32.00 288.00 0.00 7.00 1.51
33.00 288.00 0.00 7.00 1.51
34.00 288.00 0.00 7.00 1.51
35.00 288.00 0.00 7.00 1.51
36.00 288.00 0.00 7.00 1.51
37.00 288.00 0.00 7.00 1.51
38.00 288.00 0.00 7.00 1.51
39.00 288.00 0.00 7.00 1.51
40.00 288.00 0.00 7.00 1.51
41.00 288.00 0.00 7.00 1.51
42.00 288.00 0.00 7.00 1.51
43.00 288.00 0.00 7.00 1.51
44.00 288.00 0.00 7.00 1.51
45.00 288.00 0.00 7.00 1.51
46.00 288.00 0.00 7.00 1.51
47.00 288.00 0.00 7.00 1.51
48.00 288.00 0.00 7.00 1.50
49.00 288.00 0.00 7.00 1.50
50.00 288.00 0.00 7.00 1.50
51.00 288.00 0.00 7.00 1.50
52.00 288.00 0.00 7.00 1.50
53.00 288.00 0.00 7.00 1.50
54.00 288.00 0.00 7.00 1.50
55.00 288.00 0.00 7.00 1.50
56.00 288.00 0.00 7.00 1.50
57.00 288.00 0.00 7.00 1.50
58.00 288.00 0.00 7.00 1.50
59.00 288.00 0.00 7.00 1.50
60.00 288.00 0.00 7.00 1.50
61.00 288.00 0.00 7.00 1.50
62.00 288.00 0.00 7.00 1.50
63.00 288.00 0.00 7.00 1.50
64.00 288.00 0.00 7.00 1.50
65.00 288.00 0.00 7.00 1.50
66.00 288.00 0.00 7.00 1.49
67.00 288.00 0.00 7.00 1.49
68.00 288.00 0.00 7.00 1.49
69.00 288.00 0.00 7.00 1.49
70.00 288.00 0.00 7.00 1.49
71.00 288.00 0.00 7.00 1.49
72.00 288.00 0.00 7.00 1.49
73.00 288.00 0.00 7.00 1.49
74.00 288.00 0.00 7.00 1.49
75.00 288.00 0.00 7.00 1.49
76.00 288.00 0.00 7.00 1.48
77.00 288.00 0.00 7.00 1.48
78.00 288.00 0.00 7.00 1.48
79.00 288.00 0.00 7.00 1.48
80.00 288.00 0.00 7.00 1.48
81.00 288.00 0.00 7.00 1.48
82.00 288.00 0.00 7.00 1.48
83.00 288.00 0.00 7.00 1.47
84.00 288.00 0.00 7.00 1.47
85.00 288.00 0.00 7.00 1.47
86.00 288.00 0.00 7.00 1.47
87.00 288.00 0.00 7.00 1.47
88.00 288.00 0.00 7.00 1.47
89.00 288.00 0.00 7.00 1.47
90.00 288.00 0.00 7.00 1.46
91.00 288.00 0.00 7.00 1.46
92.00 288.00 0.00 7.00 1.46
93.00 288.00 0.00 7.00 1.46
94.00 288.00 0.00 7.00 1.46
95.00 288.00 0.00 7.00 1.46
96.00 288.00 0.00 7.00 1.45
97.00 288.00 0.00 7.00 1.45
98.00 288.00 0.00 7.00 1.45
99.00 288.00 0.00 7.00 1.45
100.00 288.00 0.00 7.00 1.45
101.00 288.00 0.00 7.00 1.44
102.00 288.00 0.00 7.00 1.44
103.00 288.00 0.00 7.00 1.44
104.00 288.00 0.00 7.00 1.44
105.00 288.00 0.00 7.00 1.44
106.00 288.00 0.00 7.00 1.43
107.00 288.00 0.00 7.00 1.43
108.00 288.00 0.00 7.00 1.43
109.00 288.00 0.00 7.00 1.43
110.00 288.00 0.00 7.00 1.42
111.00 288.00 0.00 7.00 1.42
112.00 288.00 0.00 7.00 1.42
113.00 288.00 0.00 7.00 1.42
114.00 288.00 0.00 7.00 1.41
115.00 288.00 0.00 7.00 1.41
116.00 288.00 0.00 7.00 1.41
117.00 288.00 0.00 7.00 1.41
118.00 288.00 0.00 7.00 1.40
119.00 288.00 0.00 7.00 1.40
120.00 288.00 0.00 7.00 1.40
121.00 288.00 0.00 7.00 1.40
122.00 288.00 0.00 7.00 1.39
123.00 288.00 0.00 7.00 1.39
124.00 288.00 0.00 7.00 1.39
125.00 288.00 0.00 7.00 1.38
126.00 288.00 0.00 7.00 1.38
127.00 288.00 0.00 7.00 1.38
128.00 288.00 0.00 7.00 1.38
129.00 288.00 0.00 7.00 1.37
130.00 288.00 0.00 7.00 1.37
131.00 288.00 0.00 7.00 1.37
132.00 288.00 0.00 7.00 1.36
133.00 288.00 0.00 7.00 1.36
134.00 288.00 0.00 7.00 1.36
135.00 288.00 0.00 7.00 1.35
136.00 288.00 0.00 7.00 1.35
137.00 288.00 0.00 7.00 1.35
138.00 288.00 0.00 7.00 1.35
139.00 288.00 0.00 7.00 1.34
140.00 288.00 0.00 7.00 1.34
141.00 288.00 0.00 7.00 1.34
142.00 288.00 0.00 7.00 1.33
143.00 288.00 0.00 7.00 1.33
144.00 288.00 0.00 7.00 1.32
145.00 288.00 0.00 7.00 1.32
146.00 288.00 0.00 7.00 1.32
147.00 288.00 0.00 7.00 1.31
148.00 288.00 0.00 7.00 1.31
149.00 288.00 0.00 7.00 1.31
150.00 288.00 0.00 7.00 1.30
151.00 288.00 0.00 7.00 1.30
152.00 288.00 0.00 7.00 1.30
153.00 288.00 0.00 7.00 1.29
154.00 288.00 0.00 7.00 1.29
155.00 288.00 0.00 7.00 1.28
156.00 288.00 0.00 7.00 1.28
157.00 288.00 0.00 7.00 1.28
158.00 288.00 0.00 7.00 1.27
159.00 288.00 0.00 7.00 1.27
160.00 288.00 0.00 7.00 1.26
161.00 288.00 0.00 7.00 1.26
162.00 288.00 0.00 7.00 1.26
163.00 288.00 0.00 7.00 1.25
164.00 288.00 0.00 7.00 1.25
165.00 288.00 0.00 7.00 1.24
166.00 288.00 0.00 7.00 1.24
167.00 288.00 0.00 7.00 1.24
168.00 288.00 0.00 7.00 1.23
169.00 288.00 0.00 7.00 1.23
170.00 288.00 0.00 7.00 1.22
171.00 288.00 0.00 7.00 1.22
172.00 288.00 0.00 7.00 1.21
173.00 288.00 0.00 7.00 1.21
174.00 288.00 0.00 7.00 1.21
175.00 288.00 0.00 7.00 1.20
176.00 288.00 0.00 7.00 1.20
177.00 288.00 0.00 7.00 1.19
178.00 288.00 0.00 7.00 1.19
179.00 288.00 0.00 7.00 1.18
180.00 288.00 0.00 7.00 1.18
181.00 288.00 0.00 7.00 1.17
182.00 288.00 0.00 7.00 1.17
183.00 288.00 0.00 7.00 1.16
184.00 288.00 0.00 7.00 1.16
185.00 288.00 0.00 7.00 1.15
186.00 288.00 0.00 7.00 1.15
187.00 288.00 0.00 7.00 1.14
188.00 288.00 0.00 7.00 1.14
189.00 288.00 0.00 7.00 1.13
190.00 288.00 0.00 7.00 1.13
191.00 288.00 0.00 7.00 1.12
192.00 288.00 0.00 7.00 1.12
193.00 288.00 0.00 7.00 1.11
194.00 288.00 0.00 7.00 1.11
195.00 288.00 0.00 7.00 1.10
196.00 288.00 0.00 7.00 1.10
197.00 288.00 0.00 7.00 1.09
198.00 288.00 0.00 7.00 1.09
199.00 288.00 0.00 7.00 1.08
200.00 288.00 0.00 7.00 1.08
201.00 288.00 0.00 7.00 1.07
202.00 288.00 0.00 7.00 1.07
203.00 288.00 0.00 7.00 1.06
204.00 288.00 0.00 7.00 1.05
205.00 288.00 0.00 7.00 1.05
206.00 288.00 0.00 7.00 1.04
207.00 288.00 0.00 7.00 1.04
208.00 288.00 0.00 7.00 1.03
209.00 288.00 0.00 7.00 1.03
210.00 288.00 0.00 7.00 1.02
211.00 288.00 0.00 7.00 1.02
212.00 288.00 0.00 7.00 1.01
213.00 288.00 0.00 7.00 1.00
214.00 288.00 0.00 7.00 1.00
215.00 288.00 0.00 7.00 0.99
216.00 288.00 0.00 7.00 0.99
217.00 288.00 0.00 7.00 0.98
218.00 288.00 0.00 7.00 0.97
219.00 288.00 0.00 7.00 0.97
220.00 288.00 0.00 7.00 0.96
221.00 288.00 0.00 7.00 0.96
222.00 288.00 0.00 7.00 0.95
223.00 288.00 0.00 7.00 0.94
224.00 288.00 0.00 7.00 0.94
225.00 288.00 0.00 7.00 0.93
226.00 288.00 0.00 7.00 0.93
227.00 288.00 0.00 7.00 0.92
228.00 288.00 0.00 7.00 0.91
229.00 288.00 0.00 7.00 0.91
230.00 288.00 0.00 7.00 0.90
231.00 288.00 0.00 7.00 0.90
232.00 288.00 0.00 7.00 0.89
233.00 288.00 0.00 7.00 0.88
234.00 288.00 0.00 7.00 0.88
235.00 288.00 0.00 7.00 0.87
236.00 288.00 0.00 7.00 0.87
237.00 288.00 0.00 7.00 0.86
238.00 288.00 0.00 7.00 0.85
239.00 288.00 0.00 7.00 0.85
240.00 288.00 0.00 7.00 0.84
241.00 288.00 0.00 7.00 0.83
242.00 288.00 0.00 7.00 0.83
243.00 288.00 0.00 7.00 0.82
244.00 288.00 0.00 7.00 0.82
245.00 288.00 0.00 7.00 0.81
246.00 288.00 0.00 7.00 0.80
247.00 288.00 0.00 7.00 0.80
248.00 288.00 0.00 7.00 0.79
249.00 288.00 0.00 7.00 0.79
250.00 288.00 0.00 7.00 0.78
251.00 288.00 0.00 7.00 0.77
252.00 288.00 0.00 7.00 0.77
253.00 288.00 0.00 7.00 0.76
254.00 288.00 0.00 7.00 0.76
255.00 288.00 0.00 7.00 0.75
256.00 288.00 0.00 7.00 0.74
257.00 288.00 0.00 7.00 0.74
258.00 288.00 0.00 7.00 0.73
259.00 288.00 0.00 7.00 0.73
260.00 288.00 0.00 7.00 0.72
261.00 288.00 0.00 7.00 0.71
262.00 288.00 0.00 7.00 0.71
263.00 288.00 0.00 7.00 0.70
264.00 288.00 0.00 7.00 0.70
265.00 288.00 0.00 7.00 0.69
266.00 288.00 0.00 7.00 0.68
267.00 288.00 0.00 7.00 0.68
268.00 288.00 0.00 7.00 0.67
269.00 288.00 0.00 7.00 0.66
270.00 288.00 0.00 7.00 0.66
271.00 288.00 0.00 7.00 0.65
272.00 288.00 0.00 7.00 0.65
273.00 288.00 0.00 7.00 0.64
274.00 288.00 0.00 7.00 0.63
275.00 288.00 0.00 7.00 0.63
276.00 288.00 0.00 7.00 0.62
277.00 288.00 0.00 7.00 0.62
278.00 288.00 0.00 7.00 0.61
279.00 288.00 0.00 7.00 0.60
280.00 288.00 0.00 7.00 0.60
281.00 288.00 0.00 7.00 0.59
282.00 288.00 0.00 7.00 0.59
283.00 288.00 0.00 7.00 0.58
284.00 288.00 0.00 7.00 0.57
285.00 288.00 0.00 7.00 0.57
286.00 288.00 0.00 7.00 0.56
287.00 288.00 0.00 7.00 0.56
288.00 288.00 0.00 7.00 0.55
289.00 288.00 0.00 7.00 0.54
290.00 288.00 0.00 7.00 0.54
291.00 288.00 0.00 7.00 0.53
292.00 288.00 0.00 7.00 0.52
293.00 288.00 0.00 7.00 0.52
294.00 288.00 0.00 7.00 0.51
295.00 288.00 0.00 7.00 0.51
296.00 288.00 0.00 7.00 0.50
297.00 288.00 0.00 7.00 0.49
298.00 288.00 0.00 7.00 0.49
299.00 288.00 0.00 7.00 0.48
300.00 288.00 0.00 7.00 0.48
301.00 288.00 0.00 7.00 0.47
302.00 288.00 0.00 7.00 0.46
303.00 288.00 0.00 7.00 0.46
304.00 288.00 0.00 7.00 0.45
305.00 288.00 0.00 7.00 0.45
306.00 288.00 0.00 7.00 0.44
307.00 288.00 0.00 7.00 0.43
308.00 288.00 0.00 7.00 0.43
309.00 288.00 0.00 7.00 0.42
310.00 288.00 0.00 7.00 0.42
311.00 288.00 0.00 7.00 0.41
312.00 288.00 0.00 7.00 0.40
313.00 288.00 0.00 7.00 0.40
314.00 288.00 0.00 7.00 0.39
315.00 288.00 0.00 7.00 0.38
316.00 288.00 0.00 7.00 0.38
317.00 288.00 0.00 7.00 0.37
318.00 288.00 0.00 7.00 0.37
319.00 288.00 0.00 7.00 0.36
320.00 288.00 0.00 7.00 0.35
321.00 288.00 0.00 7.00 0.35
322.00 288.00 0.00 7.00 0.34
323.00 288.00 0.00 7.00 0.34
324.00 288.00 0.00 7.00 0.33
325.00 288.00 0.00 7.00 0.32
326.00 288.00 0.00 7.00 0.32
327.00 288.00 0.00 7.00 0.31
328.00 288.00 0.00 7.00 0.31
329.00 288.00 0.00 7.00 0.30
330.00 288.00 0.00 7.00 0.29
331.00 288.00 0.00 7.00 0.29
332.00 288.00 0.00 7.00 0.28
333.00 288.00 0.00 7.00 0.27
334.00 288.00 0.00 7.00 0.27
335.00 288.00 0.00 7.00 0.26
336.00 288.00 0.00 7.00 0.26
337.00 288.00 0.00 7.00 0.25
338.00 288.00 0.00 7.00 0.24
339.00 288.00 0.00 7.00 0.24
340.00 288.00 0.00 7.00 0.23
341.00 288.00 0.00 7.00 0.23
342.00 288.00 0.00 7.00 0.22
343.00 288.00 0.00 7.00 0.21
344.00 288.00 0.00 7.00 0.21
345.00 288.00 0.00 7.00 0.20
346.00 288.00 0.00 7.00 0.20
347.00 288.00 0.00 7.00 0.19
348.00 288.00 0.00 7.00 0.18
349.00 288.00 0.00 7.00 0.18
350.00 288.00 0.00 7.00 0.17
351.00 288.00 0.00 7.00 0.16
352.00 288.00 0.00 7.00 0.16
353.00 288.00 0.00 7.00 0.15
354.00 288.00 0.00 7.00 0.15
355.00 288.00 0.00 7.00 0.14
356.00 288.00 0.00 7.00 0.13
357.00 288.00 0.00 7.00 0.13
358.00 288.00 0.00 7.00 0.12
359.00 288.00 0.00 7.00 0.12
360.00 288.00 0.00 7.00 0.11
361.00 288.00 0.00 7.00 0.10
362.00 288.00 0.00 7.00 0.10
363.00 288.00 0.00 7.00 0.09
364.00 288.00 0.00 7.00 0.09
365.00 288.00 0.00 7.00 0.08
366.00 288.00 0.00 7.00 0.07
367.00 288.00 0.00 7.00 0.07
368.00 288.00 0.00 7.00 0.06
369.00 288.00 0.00 7.00 0.05
370.00 288.00 0.00 7.00 0.05
371.00 288.00 0.00 7.00 0.04
372.00 288.00 0.00 7.00 0.04
373.00 288.00 0.00 7.00 0.03
374.00 288.00 0.00 7.00 0.02
375.00 288.00 0.00 7.00 0.02
376.00 288.00 0.00 7.00 0.01
377.00 288.00 0.00 7.00 0.01
378.00 288.00 0.00 7.00 -0.00
379.00 288.00 0.00 7.00 -0.01
380.00 288.00 0.00 7.00 -0.01
381.00 288.00 0.00 7.00 -0.02
382.00 288.00 0.00 7.00 -0.02
383.00 288.00 0.00 7.00 -0.03
384.00 288.00 0.00 7.00 -0.04
385.00 288.00 0.00 7.00 -0.04
386.00 288.00 0.00 7.00 -0.05
387.00 288.00 0.00 7.00 -0.05
388.00 288.00 0.00 7.00 -0.06
389.00 288.00 0.00 7.00 -0.07
390.00 288.00 0.00 7.00 -0.07
391.00 288.00 0.00 7.00 -0.08
392.00 288.00 0.00 7.00 -0.09
393.00 288.00 0.00 7.00 -0.09
394.00 288.00 0.00 7.00 -0.10
395.00 288.00 0.00 7.00 -0.10
396.00 288.00 0.00 7.00 -0.11
397.00 288.00 0.00 7.00 -0.12
398.00 288.00 0.00 7.00 -0.12
399.00 288.00 0.00 7.00 -0.13
400.00 288.00 0.00 7.00 -0.13
401.00 288.00 0.00 7.00 -0.14
402.00 288.00 0.00 7.00 -0.15
403.00 288.00 0.00 7.00 -0.15
404.00 288.00 0.00 7.00 -0.16
405.00 288.00 0.00 7.00 -0.16
406.00 288.00 0.00 7.00 -0.17
407.00 288.00 0.00 7.00 -0.18
408.00 288.00 0.00 7.00 -0.18
409.00 288.00 0.00 7.00 -0.19
410.00 288.00 0.00 7.00 -0.20
411.00 288.00 0.00 7.00 -0.20
412.00 288.00 0.00 7.00 -0.21
413.00 288.00 0.00 7.00 -0.21
414.00 288.00 0.00 7.00 -0.22
415.00 288.00 0.00 7.00 -0.23
416.00 288.00 0.00 7.00 -0.23
417.00 288.00 0.00 7.00 -0.24
418.00 288.00 0.00 7.00 -0.24
419.00 288.00 0.00 7.00 -0.25
420.00 288.00 0.00 7.00 -0.26
421.00 288.00 0.00 7.00 -0.26
422.00 288.00 0.00 7.00 -0.27
423.00 288.00 0.00 7.00 -0.27
424.00 288.00 0.00 7.00 -0.28
425.00 288.00 0.00 7.00 -0.29
426.00 288.00 0.00 7.00 -0.29
427.00 288.00 0.00 7.00 -0.30
428.00 288.00 0.00 7.00 -0.31
429.00 288.00 0.00 7.00 -0.31
430.00 288.00 0.00 7.00 -0.32
431.00 288.00 0.00 7.00 -0.32
432.00 288.00 0.00 7.00 -0.33
433.00 288.00 0.00 7.00 -0.34
434.00 288.00 0.00 7.00 -0.34
435.00 288.00 0.00 7.00 -0.35
436.00 288.00 0.00 7.00 -0.35
437.00 288.00 0.00 7.00 -0.36
438.00 288.00 0.00 7.00 -0.37
439.00 288.00 0.00 7.00 -0.37
440.00 288.00 0.00 7.00 -0.38
441.00 288.00 0.00 7.00 -0.38
442.00 288.00 0.00 7.00 -0.39
443.00 288.00 0.00 7.00 -0.40
444.00 288.00 0.00 7.00 -0.40
445.00 288.00 0.00 7.00 -0.41
446.00 288.00 0.00 7.00 -0.42
447.00 288.00 0.00 7.00 -0.42
448.00 288.00 0.00 7.00 -0.43
449.00 288.00 0.00 7.00 -0.43
450.00 288.00 0.00 7.00 -0.44
451.00 288.00 0.00 7.00 -0.45
452.00 288.00 0.00 7.00 -0.45
453.00 288.00 0.00 7.00 -0.46
454.00 288.00 0.00 7.00 -0.46
455.00 288.00 0.00 7.00 -0.47
456.00 288.00 0.00 7.00 -0.48
457.00 288.00 0.00 7.00 -0.48
458.00 288.00 0.00 7.00 -0.49
459.00 288.00 0.00 7.00 -0.49
460.00 288.00 0.00 7.00 -0.50
461.00 288.00 0.00 7.00 -0.51
462.00 288.00 0.00 7.00 -0.51
463.00 288.00 0.00 7.00 -0.52
464.00 288.00 0.00 7.00 -0.52
465.00 288.00 0.00 7.00 -0.53
466.00 288.00 0.00 7.00 -0.54
467.00 288.00 0.00 7.00 -0.54
468.00 288.00 0.00 7.00 -0.55
469.00 288.00 0.00 7.00 -0.56
470.00 288.00 0.00 7.00 -0.56
471.00 288.00 0.00 7.00 -0.57
472.00 288.00 0.00 7.00 -0.57
473.00 288.00 0.00 7.00 -0.58
474.00 288.00 0.00 7.00 -0.59
475.00 288.00 0.00 7.00 -0.59
476.00 288.00 0.00 7.00 -0.60
477.00 288.00 0.00 7.00 -0.60
478.00 288.00 0.00 7.00 -0.61
479.00 288.00 0.00 7.00 -0.62
480.00 288.00 0.00 7.00 -0.62
481.00 288.00 0.00 7.00 -0.63
482.00 288.00 0.00 7.00 -0.63
483.00 288.00 0.00 7.00 -0.64
484.00 288.00 0.00 7.00 -0.65
485.00 288.00 0.00 7.00 -0.65
486.00 288.00 0.00 7.00 -0.66
487.00 288.00 0.00 7.00 -0.66
488.00 288.00 0.00 7.00 -0.67
489.00 288.00 0.00 7.00 -0.68
490.00 288.00 0.00 7.00 -0.68
491.00 288.00 0.00 7.00 -0.69
492.00 288.00 0.00 7.00 -0.70
493.00 288.00 0.00 7.00 -0.70
494.00 288.00 0.00 7.00 -0.71
495.00 288.00 0.00 7.00 -0.71
496.00 288.00 0.00 7.00 -0.72
497.00 288.00 0.00 7.00 -0.73
498.00 288.00 0.00 7.00 -0.73
499.00 288.00 0.00 7.00 -0.74
500.00 288.00 0.00 7.00 -0.74
501.00 288.00 0.00 7.00 -0.75
502.00 288.00 0.00 7.00 -0.76
503.00 288.00 0.00 7.00 -0.76
504.00 288.00 0.00 7.00 -0.77
505.00 288.00 0.00 7.00 -0.77
506.00 288.00 0.00 7.00 -0.78
507.00 288.00 0.00 7.00 -0.79
508.00 288.00 0.00 7.00 -0.79
509.00 288.00 0.00 7.00 -0.80
510.00 288.00 0.00 7.00 -0.80
511.00 288.00 0.00 7.00 -0.81
512.00 288.00 0.00 7.00 -0.82
513.00 288.00 0.00 7.00 -0.82
514.00 288.00 0.00 7.00 -0.83
515.00 288.00 0.00 7.00 -0.83
516.00 288.00 0.00 7.00 -0.84
517.00 288.00 0.00 7.00 -0.85
518.00 288.00 0.00 7.00 -0.85
519.00 288.00 0.00 7.00 -0.86
520.00 288.00 0.00 7.00 -0.87
521.00 288.00 0.00 7.00 -0.87
522.00 288.00 0.00 7.00 -0.88
523.00 288.00 0.00 7.00 -0.88
524.00 288.00 0.00 7.00 -0.89
525.00 288.00 0.00 7.00 -0.90
526.00 288.00 0.00 7.00 -0.90
527.00 288.00 0.00 7.00 -0.91
528.00 288.00 0.00 7.00 -0.91
529.00 288.00 0.00 7.00 -0.92
530.00 288.00 0.00 7.00 -0.93
531.00 288.00 0.00 7.00 -0.93
532.00 288.00 0.00 7.00 -0.94
533.00 288.00 0.00 7.00 -0.94
534.00 288.00 0.00 7.00 -0.95
535.00 288.00 0.00 7.00 -0.96
536.00 288.00 0.00 7.00 -0.96
537.00 288.00 0.00 7.00 -0.97
538.00 288.00 0.00 7.00 -0.97
539.00 288.00 0.00 7.00 -0.98
540.00 288.00 0.00 7.00 -0.99
541.00 288.00 0.00 7.00 -0.99
542.00 288.00 0.00 7.00 -1.00
543.00 288.00 0.00 7.00 -1.00
544.00 288.00 0.00 7.00 -1.01
545.00 288.00 0.00 7.00 -1.02
546.00 288.00 0.00 7.00 -1.02
547.00 288.00 0.00 7.00 -1.03
548.00 288.00 0.00 7.00 -1.03
549.00 288.00 0.00 7.00 -1.04
550.00 288.00 0.00 7.00 -1.04
551.00 288.00 0.00 7.00 -1.05
552.00 288.00 0.00 7.00 -1.05
553.00 288.00 0.00 7.00 -1.06
554.00 288.00 0.00 7.00 -1.07
555.00 288.00 0.00 7.00 -1.07
556.00 288.00 0.00 7.00 -1.08
557.00 288.00 0.00 7.00 -1.08
558.00 288.00 0.00 7.00 -1.09
559.00 288.00 0.00 7.00 -1.09
560.00 288.00 0.00 7.00 -1.10
561.00 288.00 0.00 7.00 -1.10
562.00 288.00 0.00 7.00 -1.11
563.00 288.00 0.00 7.00 -1.11
564.00 288.00 0.00 7.00 -1.12
565.00 288.00 0.00 7.00 -1.12
566.00 288.00 0.00 7.00 -1.13
567.00 288.00 0.00 7.00 -1.13
568.00 288.00 0.00 7.00 -1.14
569.00 288.00 0.00 7.00 -1.14
570.00 288.00 0.00 7.00 -1.15
571.00 288.00 0.00 7.00 -1.15
572.00 288.00 0.00 7.00 -1.16
573.00 288.00 0.00 7.00 -1.16
574.00 288.00 0.00 7.00 -1.17
575.00 288.00 0.00 7.00 -1.17
576.00 288.00 0.00 7.00 -1.18
577.00 288.00 0.00 7.00 -1.18
578.00 288.00 0.00 7.00 -1.19
579.00 288.00 0.00 7.00 -1.19
580.00 288.00 0.00 7.00 -1.20
581.00 288.00 0.00 7.00 -1.20
582.00 288.00 0.00 7.00 -1.21
583.00 288.00 0.00 7.00 -1.21
584.00 288.00 0.00 7.00 -1.21
585.00 288.00 0.00 7.00 -1.22
586.00 288.00 0.00 7.00 -1.22
587.00 288.00 0.00 7.00 -1.23
588.00 288.00 0.00 7.00 -1.23
589.00 288.00 0.00 7.00 -1.24
590.00 288.00 0.00 7.00 -1.24
591.00 288.00 0.00 7.00 -1.24
592.00 288.00 0.00 7.00 -1.25
593.00 288.00 0.00 7.00 -1.25
594.00 288.00 0.00 7.00 -1.26
595.00 288.00 0.00 7.00 -1.26
596.00 288.00 0.00 7.00 -1.26
597.00 288.00 0.00 7.00 -1.27
598.00 288.00 0.00 7.00 -1.27
599.00 288.00 0.00 7.00 -1.28
600.00 288.00 0.00 7.00 -1.28
601.00 288.00 0.00 7.00 -1.28
602.00 288.00 0.00 7.00 -1.29
603.00 288.00 0.00 7.00 -1.29
604.00 288.00 0.00 7.00 -1.30
605.00 288.00 0.00 7.00 -1.30
606.00 288.00 0.00 7.00 -1.30
607.00 288.00 0.00 7.00 -1.31
608.00 288.00 0.00 7.00 -1.31
609.00 288.00 0.00 7.00 -1.31
610.00 288.00 0.00 7.00 -1.32
611.00 288.00 0.00 7.00 -1.32
612.00 288.00 0.00 7.00 -1.32
613.00 288.00 0.00 7.00 -1.33
614.00 288.00 0.00 7.00 -1.33
615.00 288.00 0.00 7.00 -1.34
616.00 288.00 0.00 7.00 -1.34
617.00 288.00 0.00 7.00 -1.34
618.00 288.00 0.00 7.00 -1.35
619.00 288.00 0.00 7.00 -1.35
620.00 288.00 0.00 7.00 -1.35
621.00 288.00 0.00 7.00 -1.35
622.00 288.00 0.00 7.00 -1.36
623.00 288.00 0.00 7.00 -1.36
624.00 288.00 0.00 7.00 -1.36
625.00 288.00 0.00 7.00 -1.37
626.00 288.00 0.00 7.00 -1.37
627.00 288.00 0.00 7.00 -1.37
628.00 288.00 0.00 7.00 -1.38
629.00 288.00 0.00 7.00 -1.38
630.00 288.00 0.00 7.00 -1.38
631.00 288.00 0.00 7.00 -1.38
632.00 288.00 0.00 7.00 -1.39
633.00 288.00 0.00 7.00 -1.39
634.00 288.00 0.00 7.00 -1.39
635.00 288.00 0.00 7.00 -1.40
636.00 288.00 0.00 7.00 -1.40
637.00 288.00 0.00 7.00 -1.40
638.00 288.00 0.00 7.00 -1.40
639.00 288.00 0.00 7.00 -1.41
640.00 288.00 0.00 7.00 -1.41
641.00 288.00 0.00 7.00 -1.41
642.00 288.00 0.00 7.00 -1.41
643.00 288.00 0.00 7.00 -1.42
644.00 288.00 0.00 7.00 -1.42
645.00 288.00 0.00 7.00 -1.42
646.00 288.00 0.00 7.00 -1.42
647.00 288.00 0.00 7.00 -1.43
648.00 288.00 0.00 7.00 -1.43
649.00 288.00 0.00 7.00 -1.43
650.00 288.00 0.00 7.00 -1.43
651.00 288.00 0.00 7.00 -1.44
652.00 288.00 0.00 7.00 -1.44
653.00 288.00 0.00 7.00 -1.44
654.00 288.00 0.00 7.00 -1.44
655.00 288.00 0.00 7.00 -1.44
656.00 288.00 0.00 7.00 -1.45
657.00 288.00 0.00 7.00 -1.45
658.00 288.00 0.00 7.00 -1.45
659.00 288.00 0.00 7.00 -1.45
660.00 288.00 0.00 7.00 -1.45
661.00 288.00 0.00 7.00 -1.46
662.00 288.00 0.00 7.00 -1.46
663.00 288.00 0.00 7.00 -1.46
664.00 288.00 0.00 7.00 -1.46
665.00 288.00 0.00 7.00 -1.46
666.00 288.00 0.00 7.00 -1.46
667.00 288.00 0.00 7.00 -1.47
668.00 288.00 0.00 7.00 -1.47
669.00 288.00 0.00 7.00 -1.47
670.00 288.00 0.00 7.00 -1.47
671.00 288.00 0.00 7.00 -1.47
672.00 288.00 0.00 7.00 -1.47
673.00 288.00 0.00 7.00 -1.47
674.00 288.00 0.00 7.00 -1.48
675.00 288.00 0.00 7.00 -1.48
676.00 288.00 0.00 7.00 -1.48
677.00 288.00 0.00 7.00 -1.48
678.00 288.00 0.00 7.00 -1.48
679.00 288.00 0.00 7.00 -1.48
680.00 288.00 0.00 7.00 -1.48
681.00 288.00 0.00 7.00 -1.49
682.00 288.00 0.00 7.00 -1.49
683.00 288.00 0.00 7.00 -1.49
684.00 288.00 0.00 7.00 -1.49
685.00 288.00 0.00 7.00 -1.49
686.00 288.00 0.00 7.00 -1.49
687.00 288.00 0.00 7.00 -1.49
688.00 288.00 0.00 7.00 -1.49
689.00 288.00 0.00 7.00 -1.49
690.00 288.00 0.00 7.00 -1.49
691.00 288.00 0.00 7.00 -1.50
692.00 288.00 0.00 7.00 -1.50
693.00 288.00 0.00 7.00 -1.50
694.00 288.00 0.00 7.00 -1.50
695.00 288.00 0.00 7.00 -1.50
696.00 288.00 0.00 7.00 -1.50
697.00 288.00 0.00 7.00 -1.50
698.00 288.00 0.00 7.00 -1.50
699.00 288.00 0.00 7.00 -1.50
700.00 288.00 0.00 7.00 -1.50
701.00 288.00 0.00 7.00 -1.50
702.00 288.00 0.00 7.00 -1.50
703.00 288.00 0.00 7.00 -1.50
704.00 288.00 0.00 7.00 -1.50
705.00 288.00 0.00 7.00 -1.50
706.00 288.00 0.00 7.00 -1.50
707.00 288.00 0.00 7.00 -1.50
708.00 288.00 0.00 7.00 -1.50
709.00 288.00 0.00 7.00 -1.51
710.00 288.00 0.00 7.00 -1.51
711.00 288.00 0.00 7.00 -1.51
712.00 288.00 0.00 7.00 -1.51
713.00 288.00 0.00 7.00 -1.51
714.00 288.00 0.00 7.00 -1.51
715.00 288.00 0.00 7.00 -1.51
716.00 288.00 0.00 7.00 -1.51
717.00 288.00 0.00 7.00 -1.51
718.00 288.00 0.00 7.00 -1.51
719.00 288.00 0.00 7.00 -1.51
720.00 288.00 0.00 7.00 -1.51
721.00 288.00 0.00 7.00 -1.51
722.00 288.00 0.00 7.00 -1.51
723.00 288.00 0.00 7.00 -1.51
724.00 288.00 0.00 7.00 -1.51
725.00 288.00 0.00 7.00 -1.51
726.00 288.00 0.00 7.00 -1.51
727.00 288.00 0.00 7.00 -1.51
728.00 288.00 0.00 7.00 -1.51
729.00 288.00 0.00 7.00 -1.51
730.00 288.00 0.00 7.00 -1.51
731.00 288.00 0.00 7.00 -1.51
732.00 288.00 0.00 7.00 -1.51
733.00 288.00 0.00 7.00 -1.51
734.00 288.00 0.00 7.00 -1.51
735.00 288.00 0.00 7.00 -1.51
736.00 288.00 0.00 7.00 -1.51
737.00 288.00 0.00 7.00 -1.51
738.00 288.00 0.00 7.00 -1.51
739.00 288.00 0.00 7.00 -1.51
740.00 288.00 0.00 7.00 -1.51
741.00 288.00 0.00 7.00 -1.51
742.00 288.00 0.00 7.00 -1.51
743.00 288.00 0.00 7.00 -1.51
744.00 288.00 0.00 7.00 -1.51
745.00 288.00 0.00 7.00 -1.51
746.00 288.00 0.00 7.00 -1.51
747.00 288.00 0.00 7.00 -1.51
748.00 288.00 0.00 7.00 -1.51
749.00 288.00 0.00 7.00 -1.51
750.00 288.00 0.00 7.00 -1.51
751.00 288.00 0.00 7.00 -1.51
752.00 288.00 0.00 7.00 -1.51
753.00 288.00 0.00 7.00 -1.51
754.00 288.00 0.00 7.00 -1.51
755.00 288.00 0.00 7.00 -1.51
756.00 288.00 0.00 7.00 -1.51
757.00 288.00 0.00 7.00 -1.51
758.00 288.00 0.00 7.00 -1.51
759.00 288.00 0.00 7.00 -1.51
760.00 288.00 0.00 7.00 -1.51
761.00 288.00 0.00 7.00 -1.51
762.00 288.00 0.00 7.00 -1.51
763.00 288.00 0.00 7.00 -1.51
764.00 288.00 0.00 7.00 -1.51
765.00 288.00 0.00 7.00 -1.51
766.00 288.00 0.00 7.00 -1.51
767.00 288.00 0.00 7.00 -1.51
768.00 288.00 0.00 7.00 -1.51
769.00 288.00 0.00 7.00 -1.51
770.00 288.00 0.00 7.00 -1.51
771.00 288.00 0.00 7.00 -1.51
772.00 288.00 0.00 7.00 -1.51
773.00 288.00 0.00 7.00 -1.51
774.00 288.00 0.00 7.00 -1.51
775.00 288.00 0.00 7.00 -1.51
776.00 288.00 0.00 7.00 -1.51
777.00 288.00 0.00 7.00 -1.51
778.00 288.00 0.00 7.00 -1.51
779.00 288.00 0.00 7.00 -1.51
780.00 288.00 0.00 7.00 -1.51
781.00 288.00 0.00 7.00 -1.51
782.00 288.00 0.00 7.00 -1.51
783.00 288.00 0.00 7.00 -1.51
784.00 288.00 0.00 7.00 -1.51
785.00 288.00 0.00 7.00 -1.51
786.00 288.00 0.00 7.00 -1.51
787.00 288.00 0.00 7.00 -1.51
788.00 288.00 0.00 7.00 -1.51
789.00 288.00 0.00 7.00 -1.51
790.00 288.00 0.00 7.00 -1.51
791.00 288.00 0.00 7.00 -1.51
792.00 288.00 0.00 7.00 -1.51
793.00 288.00 0.00 7.00 -1.51
794.00 288.00 0.00 7.00 -1.51
795.00 288.00 0.00 7.00 -1.51
796.00 288.00 0.00 7.00 -1.51
797.00 288.00 0.00 7.00 -1.51
798.00 288.00 0.00 7.00 -1.51
799.00 288.00 0.00 7.00 -1.51
800.00 288.00 0.00 7.00 -1.51
801.00 288.00 0.00 7.00 -1.51
802.00 288.00 0.00 7.00 -1.51
803.00 288.00 0.00 7.00 -1.51
804.00 288.00 0.00 7.00 -1.51
805.00 288.00 0.00 7.00 -1.51
806.00 288.00 0.00 7.00 -1.51
807.00 288.00 0.00 7.00 -1.51
808.00 288.00 0.00 7.00 -1.51
809.00 288.00 0.00 7.00 -1.51
810.00 288.00 0.00 7.00 -1.51
811.00 288.00 0.00 7.00 -1.51
812.00 288.00 0.00 7.00 -1.51
813.00 288.00 0.00 7.00 -1.51
814.00 288.00 0.00 7.00 -1.51
815.00 288.00 0.00 7.00 -1.51
816.00 288.00 0.00 7.00 -1.51
817.00 288.00 0.00 7.00 -1.51
818.00 288.00 0.00 7.00 -1.51
819.00 288.00 0.00 7.00 -1.51
820.00 288.00 0.00 7.00 -1.51
821.00 288.00 0.00 7.00 -1.51
822.00 288.00 0.00 7.00 -1.51
823.00 288.00 0.00 7.00 -1.51
824.00 288.00 0.00 7.00 -1.51
825.00 288.00 0.00 7.00 -1.51
826.00 288.00 0.00 7.00 -1.51
827.00 288.00 0.00 7.00 -1.51
828.00 288.00 0.00 7.00 -1.51
829.00 288.00 0.00 7.00 -1.51
830.00 288.00 0.00 7.00 -1.51
831.00 288.00 0.00 7.00 -1.51
