1000.00 288.00 00.00
0.00 288.00 0.00 10.48 0.53
1.00 288.00 0.00 10.48 0.53
2.00 288.00 0.00 10.48 0.53
3.00 288.00 0.00 10.48 0.53
4.00 288.00 0.00 10.48 0.53
5.00 288.00 0.00 10.48 0.53
6.00 288.00 0.00 10.48 0.53
7.00 288.00 0.00 10.48 0.53
8.00 288.00 0.00 10.48 0.53
9.00 288.00 0.00 10.48 0.53
10.00 288.00 0.00 10.48 0.53
11.00 288.00 0.00 10.48 0.53
12.00 288.00 0.00 10.48 0.53
13.00 288.00 0.00 10.48 0.53
14.00 288.00 0.00 10.48 0.53
15.00 288.00 0.00 10.48 0.53
16.00 288.00 0.00 10.48 0.53
17.00 288.00 0.00 10.48 0.53
18.00 288.00 0.00 10.48 0.53
19.00 288.00 0.00 10.48 0.53
20.00 288.00 0.00 10.48 0.53
21.00 288.00 0.00 10.48 0.53
22.00 288.00 0.00 10.48 0.53
23.00 288.00 0.00 10.48 0.53
24.00 288.00 0.00 10.48 0.53
25.00 288.00 0.00 10.48 0.53
26.00 288.00 0.00 10.48 0.53
27.00 288.00 0.00 10.48 0.53
28.00 288.00 0.00 10.48 0.53
29.00 288.00 0.00 10.48 0.53
30.00 288.00 0.00 10.48 0.53
31.00 288.00 0.00 10.48 0.53
32.00 288.00 0.00 10.48 0.53
33.00 288.00 0.00 10.48 0.53
34.00 288.00 0.00 10.48 0.53
35.00 288.00 0.00 10.48 0.53
36.00 288.00 0.00 10.48 0.53
37.00 288.00 0.00 10.48 0.53
38.00 288.00 0.00 10.48 0.53
39.00 288.00 0.00 10.48 0.53
40.00 288.00 0.00 10.48 0.53
41.00 288.00 0.00 10.48 0.53
42.00 288.00 0.00 10.48 0.53
43.00 288.00 0.00 10.48 0.53
44.00 288.00 0.00 10.48 0.53
45.00 288.00 0.00 10.48 0.53
46.00 288.00 0.00 10.48 0.53
47.00 288.00 0.00 10.48 0.53
48.00 288.00 0.00 10.48 0.53
49.00 288.00 0.00 10.48 0.53
50.00 288.00 0.00 10.48 0.53
51.00 288.00 0.00 10.48 0.53
52.00 288.00 0.00 10.48 0.53
53.00 288.00 0.00 10.48 0.53
54.00 288.00 0.00 10.48 0.53
55.00 288.00 0.00 10.48 0.53
56.00 288.00 0.00 10.48 0.53
57.00 288.00 0.00 10.48 0.53
58.00 288.00 0.00 10.48 0.53
59.00 288.00 0.00 10.48 0.53
60.00 288.00 0.00 10.48 0.53
61.00 288.00 0.00 10.48 0.53
62.00 288.00 0.00 10.48 0.53
63.00 288.00 0.00 10.48 0.53
64.00 288.00 0.00 10.48 0.53
65.00 288.00 0.00 10.48 0.53
66.00 288.00 0.00 10.48 0.53
67.00 288.00 0.00 10.48 0.53
68.00 288.00 0.00 10.48 0.53
69.00 288.00 0.00 10.48 0.53
70.00 288.00 0.00 10.48 0.53
71.00 288.00 0.00 10.48 0.53
72.00 288.00 0.00 10.48 0.53
73.00 288.00 0.00 10.48 0.53
74.00 288.00 0.00 10.48 0.53
75.00 288.00 0.00 10.48 0.53
76.00 288.00 0.00 10.48 0.53
77.00 288.00 0.00 10.48 0.53
78.00 288.00 0.00 10.48 0.53
79.00 288.00 0.00 10.48 0.53
80.00 288.00 0.00 10.48 0.53
81.00 288.00 0.00 10.48 0.53
82.00 288.00 0.00 10.48 0.53
83.00 288.00 0.00 10.48 0.53
84.00 288.00 0.00 10.48 0.53
85.00 288.00 0.00 10.48 0.53
86.00 288.00 0.00 10.48 0.53
87.00 288.00 0.00 10.48 0.53
88.00 288.00 0.00 10.48 0.53
89.00 288.00 0.00 10.48 0.53
90.00 288.00 0.00 10.48 0.53
91.00 288.00 0.00 10.48 0.53
92.00 288.00 0.00 10.48 0.53
93.00 288.00 0.00 10.48 0.53
94.00 288.00 0.00 10.48 0.53
95.00 288.00 0.00 10.48 0.53
96.00 288.00 0.00 10.48 0.53
97.00 288.00 0.00 10.48 0.53
98.00 288.00 0.00 10.48 0.53
99.00 288.00 0.00 10.48 0.53
100.00 288.00 0.00 10.48 0.53
101.00 288.00 0.00 10.48 0.53
102.00 288.00 0.00 10.48 0.53
103.00 288.00 0.00 10.48 0.53
104.00 288.00 0.00 10.48 0.53
105.00 288.00 0.00 10.48 0.53
106.00 288.00 0.00 10.48 0.53
107.00 288.00 0.00 10.48 0.53
108.00 288.00 0.00 10.48 0.53
109.00 288.00 0.00 10.48 0.53
110.00 288.00 0.00 10.48 0.53
111.00 288.00 0.00 10.48 0.53
112.00 288.00 0.00 10.48 0.53
113.00 288.00 0.00 10.48 0.53
114.00 288.00 0.00 10.48 0.53
115.00 288.00 0.00 10.48 0.53
116.00 288.00 0.00 10.48 0.53
117.00 288.00 0.00 10.48 0.53
118.00 288.00 0.00 10.48 0.53
119.00 288.00 0.00 10.48 0.53
120.00 288.00 0.00 10.48 0.53
121.00 288.00 0.00 10.48 0.53
122.00 288.00 0.00 10.48 0.53
123.00 288.00 0.00 10.48 0.53
124.00 288.00 0.00 10.48 0.53
125.00 288.00 0.00 10.48 0.53
126.00 288.00 0.00 10.48 0.53
127.00 288.00 0.00 10.47 0.53
128.00 288.00 0.00 10.47 0.53
129.00 288.00 0.00 10.47 0.53
130.00 288.00 0.00 10.47 0.53
131.00 288.00 0.00 10.47 0.53
132.00 288.00 0.00 10.47 0.53
133.00 288.00 0.00 10.46 0.53
134.00 288.00 0.00 10.46 0.53
135.00 288.00 0.00 10.46 0.53
136.00 288.00 0.00 10.46 0.53
137.00 288.00 0.00 10.45 0.53
138.00 288.00 0.00 10.45 0.53
139.00 288.00 0.00 10.45 0.53
140.00 288.00 0.00 10.45 0.53
141.00 288.00 0.00 10.44 0.53
142.00 288.00 0.00 10.44 0.52
143.00 288.00 0.00 10.44 0.52
144.00 288.00 0.00 10.43 0.52
145.00 288.00 0.00 10.43 0.52
146.00 288.00 0.00 10.43 0.52
147.00 288.00 0.00 10.42 0.52
148.00 288.00 0.00 10.42 0.52
149.00 288.00 0.00 10.42 0.52
150.00 288.00 0.00 10.41 0.52
151.00 288.00 0.00 10.41 0.52
152.00 288.00 0.00 10.40 0.52
153.00 288.00 0.00 10.40 0.52
154.00 288.00 0.00 10.40 0.52
155.00 288.00 0.00 10.39 0.52
156.00 288.00 0.00 10.39 0.52
157.00 288.00 0.00 10.38 0.52
158.00 288.00 0.00 10.38 0.51
159.00 288.00 0.00 10.37 0.51
160.00 288.00 0.00 10.37 0.51
161.00 288.00 0.00 10.36 0.51
162.00 288.00 0.00 10.36 0.51
163.00 288.00 0.00 10.35 0.51
164.00 288.00 0.00 10.35 0.51
165.00 288.00 0.00 10.34 0.51
166.00 288.00 0.00 10.33 0.51
167.00 288.00 0.00 10.33 0.51
168.00 288.00 0.00 10.32 0.51
169.00 288.00 0.00 10.32 0.51
170.00 288.00 0.00 10.31 0.50
171.00 288.00 0.00 10.30 0.50
172.00 288.00 0.00 10.30 0.50
173.00 288.00 0.00 10.29 0.50
174.00 288.00 0.00 10.29 0.50
175.00 288.00 0.00 10.28 0.50
176.00 288.00 0.00 10.27 0.50
177.00 288.00 0.00 10.26 0.50
178.00 288.00 0.00 10.26 0.50
179.00 288.00 0.00 10.25 0.50
180.00 288.00 0.00 10.24 0.49
181.00 288.00 0.00 10.24 0.49
182.00 288.00 0.00 10.23 0.49
183.00 288.00 0.00 10.22 0.49
184.00 288.00 0.00 10.21 0.49
185.00 288.00 0.00 10.21 0.49
186.00 288.00 0.00 10.20 0.49
187.00 288.00 0.00 10.19 0.49
188.00 288.00 0.00 10.18 0.48
189.00 288.00 0.00 10.17 0.48
190.00 288.00 0.00 10.17 0.48
191.00 288.00 0.00 10.16 0.48
192.00 288.00 0.00 10.15 0.48
193.00 288.00 0.00 10.14 0.48
194.00 288.00 0.00 10.13 0.48
195.00 288.00 0.00 10.12 0.48
196.00 288.00 0.00 10.11 0.47
197.00 288.00 0.00 10.10 0.47
198.00 288.00 0.00 10.09 0.47
199.00 288.00 0.00 10.09 0.47
200.00 288.00 0.00 10.08 0.47
201.00 288.00 0.00 10.07 0.47
202.00 288.00 0.00 10.06 0.47
203.00 288.00 0.00 10.05 0.46
204.00 288.00 0.00 10.04 0.46
205.00 288.00 0.00 10.03 0.46
206.00 288.00 0.00 10.02 0.46
207.00 288.00 0.00 10.01 0.46
208.00 288.00 0.00 10.00 0.46
209.00 288.00 0.00 9.99 0.45
210.00 288.00 0.00 9.97 0.45
211.00 288.00 0.00 9.96 0.45
212.00 288.00 0.00 9.95 0.45
213.00 288.00 0.00 9.94 0.45
214.00 288.00 0.00 9.93 0.45
215.00 288.00 0.00 9.92 0.44
216.00 288.00 0.00 9.91 0.44
217.00 288.00 0.00 9.90 0.44
218.00 288.00 0.00 9.89 0.44
219.00 288.00 0.00 9.87 0.44
220.00 288.00 0.00 9.86 0.44
221.00 288.00 0.00 9.85 0.43
222.00 288.00 0.00 9.84 0.43
223.00 288.00 0.00 9.83 0.43
224.00 288.00 0.00 9.82 0.43
225.00 288.00 0.00 9.80 0.43
226.00 288.00 0.00 9.79 0.42
227.00 288.00 0.00 9.78 0.42
228.00 288.00 0.00 9.77 0.42
229.00 288.00 0.00 9.75 0.42
230.00 288.00 0.00 9.74 0.42
231.00 288.00 0.00 9.73 0.42
232.00 288.00 0.00 9.71 0.41
233.00 288.00 0.00 9.70 0.41
234.00 288.00 0.00 9.69 0.41
235.00 288.00 0.00 9.67 0.41
236.00 288.00 0.00 9.66 0.41
237.00 288.00 0.00 9.65 0.40
238.00 288.00 0.00 9.63 0.40
239.00 288.00 0.00 9.62 0.40
240.00 288.00 0.00 9.61 0.40
241.00 288.00 0.00 9.59 0.39
242.00 288.00 0.00 9.58 0.39
243.00 288.00 0.00 9.56 0.39
244.00 288.00 0.00 9.55 0.39
245.00 288.00 0.00 9.53 0.39
246.00 288.00 0.00 9.52 0.38
247.00 288.00 0.00 9.51 0.38
248.00 288.00 0.00 9.49 0.38
249.00 288.00 0.00 9.48 0.38
250.00 288.00 0.00 9.46 0.37
251.00 288.00 0.00 9.45 0.37
252.00 288.00 0.00 9.43 0.37
253.00 288.00 0.00 9.42 0.37
254.00 288.00 0.00 9.40 0.37
255.00 288.00 0.00 9.38 0.36
256.00 288.00 0.00 9.37 0.36
257.00 288.00 0.00 9.35 0.36
258.00 288.00 0.00 9.34 0.36
259.00 288.00 0.00 9.32 0.35
260.00 288.00 0.00 9.30 0.35
261.00 288.00 0.00 9.29 0.35
262.00 288.00 0.00 9.27 0.35
263.00 288.00 0.00 9.26 0.34
264.00 288.00 0.00 9.24 0.34
265.00 288.00 0.00 9.22 0.34
266.00 288.00 0.00 9.21 0.34
267.00 288.00 0.00 9.19 0.33
268.00 288.00 0.00 9.17 0.33
269.00 288.00 0.00 9.15 0.33
270.00 288.00 0.00 9.14 0.32
271.00 288.00 0.00 9.12 0.32
272.00 288.00 0.00 9.10 0.32
273.00 288.00 0.00 9.08 0.32
274.00 288.00 0.00 9.07 0.31
275.00 288.00 0.00 9.05 0.31
276.00 288.00 0.00 9.03 0.31
277.00 288.00 0.00 9.01 0.31
278.00 288.00 0.00 9.00 0.30
279.00 288.00 0.00 8.98 0.30
280.00 288.00 0.00 8.96 0.30
281.00 288.00 0.00 8.94 0.29
282.00 288.00 0.00 8.92 0.29
283.00 288.00 0.00 8.90 0.29
284.00 288.00 0.00 8.88 0.29
285.00 288.00 0.00 8.87 0.28
286.00 288.00 0.00 8.85 0.28
287.00 288.00 0.00 8.83 0.28
288.00 288.00 0.00 8.81 0.27
289.00 288.00 0.00 8.79 0.27
290.00 288.00 0.00 8.77 0.27
291.00 288.00 0.00 8.75 0.27
292.00 288.00 0.00 8.73 0.26
293.00 288.00 0.00 8.71 0.26
294.00 288.00 0.00 8.69 0.26
295.00 288.00 0.00 8.67 0.25
296.00 288.00 0.00 8.65 0.25
297.00 288.00 0.00 8.63 0.25
298.00 288.00 0.00 8.61 0.24
299.00 288.00 0.00 8.59 0.24
300.00 288.00 0.00 8.57 0.24
301.00 288.00 0.00 8.55 0.24
302.00 288.00 0.00 8.53 0.23
303.00 288.00 0.00 8.51 0.23
304.00 288.00 0.00 8.49 0.23
305.00 288.00 0.00 8.47 0.22
306.00 288.00 0.00 8.45 0.22
307.00 288.00 0.00 8.43 0.22
308.00 288.00 0.00 8.41 0.21
309.00 288.00 0.00 8.39 0.21
310.00 288.00 0.00 8.37 0.21
311.00 288.00 0.00 8.35 0.20
312.00 288.00 0.00 8.33 0.20
313.00 288.00 0.00 8.31 0.20
314.00 288.00 0.00 8.29 0.20
315.00 288.00 0.00 8.27 0.19
316.00 288.00 0.00 8.25 0.19
317.00 288.00 0.00 8.23 0.19
318.00 288.00 0.00 8.21 0.18
319.00 288.00 0.00 8.19 0.18
320.00 288.00 0.00 8.17 0.18
321.00 288.00 0.00 8.15 0.17
322.00 288.00 0.00 8.13 0.17
323.00 288.00 0.00 8.11 0.17
324.00 288.00 0.00 8.09 0.16
325.00 288.00 0.00 8.07 0.16
326.00 288.00 0.00 8.05 0.16
327.00 288.00 0.00 8.03 0.16
328.00 288.00 0.00 8.01 0.15
329.00 288.00 0.00 7.99 0.15
330.00 288.00 0.00 7.97 0.15
331.00 288.00 0.00 7.95 0.14
332.00 288.00 0.00 7.93 0.14
333.00 288.00 0.00 7.91 0.14
334.00 288.00 0.00 7.89 0.13
335.00 288.00 0.00 7.87 0.13
336.00 288.00 0.00 7.85 0.13
337.00 288.00 0.00 7.83 0.13
338.00 288.00 0.00 7.81 0.12
339.00 288.00 0.00 7.79 0.12
340.00 288.00 0.00 7.77 0.12
341.00 288.00 0.00 7.75 0.11
342.00 288.00 0.00 7.73 0.11
343.00 288.00 0.00 7.71 0.11
344.00 288.00 0.00 7.69 0.10
345.00 288.00 0.00 7.67 0.10
346.00 288.00 0.00 7.65 0.10
347.00 288.00 0.00 7.63 0.09
348.00 288.00 0.00 7.61 0.09
349.00 288.00 0.00 7.59 0.09
350.00 288.00 0.00 7.57 0.09
351.00 288.00 0.00 7.55 0.08
352.00 288.00 0.00 7.53 0.08
353.00 288.00 0.00 7.51 0.08
354.00 288.00 0.00 7.49 0.07
355.00 288.00 0.00 7.47 0.07
356.00 288.00 0.00 7.45 0.07
357.00 288.00 0.00 7.43 0.06
358.00 288.00 0.00 7.41 0.06
359.00 288.00 0.00 7.39 0.06
360.00 288.00 0.00 7.37 0.05
361.00 288.00 0.00 7.35 0.05
362.00 288.00 0.00 7.33 0.05
363.00 288.00 0.00 7.31 0.05
364.00 288.00 0.00 7.29 0.04
365.00 288.00 0.00 7.27 0.04
366.00 288.00 0.00 7.25 0.04
367.00 288.00 0.00 7.23 0.03
368.00 288.00 0.00 7.21 0.03
369.00 288.00 0.00 7.19 0.03
370.00 288.00 0.00 7.17 0.02
371.00 288.00 0.00 7.15 0.02
372.00 288.00 0.00 7.13 0.02
373.00 288.00 0.00 7.11 0.02
374.00 288.00 0.00 7.09 0.01
375.00 288.00 0.00 7.07 0.01
376.00 288.00 0.00 7.05 0.01
377.00 288.00 0.00 7.03 0.00
378.00 288.00 0.00 7.01 -0.00
379.00 288.00 0.00 6.99 -0.00
380.00 288.00 0.00 6.97 -0.01
381.00 288.00 0.00 6.95 -0.01
382.00 288.00 0.00 6.93 -0.01
383.00 288.00 0.00 6.91 -0.02
384.00 288.00 0.00 6.89 -0.02
385.00 288.00 0.00 6.87 -0.02
386.00 288.00 0.00 6.85 -0.02
387.00 288.00 0.00 6.83 -0.03
388.00 288.00 0.00 6.81 -0.03
389.00 288.00 0.00 6.79 -0.03
390.00 288.00 0.00 6.77 -0.04
391.00 288.00 0.00 6.75 -0.04
392.00 288.00 0.00 6.73 -0.04
393.00 288.00 0.00 6.71 -0.05
394.00 288.00 0.00 6.69 -0.05
395.00 288.00 0.00 6.67 -0.05
396.00 288.00 0.00 6.65 -0.05
397.00 288.00 0.00 6.63 -0.06
398.00 288.00 0.00 6.61 -0.06
399.00 288.00 0.00 6.59 -0.06
400.00 288.00 0.00 6.57 -0.07
401.00 288.00 0.00 6.55 -0.07
402.00 288.00 0.00 6.53 -0.07
403.00 288.00 0.00 6.51 -0.08
404.00 288.00 0.00 6.49 -0.08
405.00 288.00 0.00 6.47 -0.08
406.00 288.00 0.00 6.45 -0.09
407.00 288.00 0.00 6.43 -0.09
408.00 288.00 0.00 6.41 -0.09
409.00 288.00 0.00 6.39 -0.09
410.00 288.00 0.00 6.37 -0.10
411.00 288.00 0.00 6.35 -0.10
412.00 288.00 0.00 6.33 -0.10
413.00 288.00 0.00 6.31 -0.11
414.00 288.00 0.00 6.29 -0.11
415.00 288.00 0.00 6.27 -0.11
416.00 288.00 0.00 6.25 -0.12
417.00 288.00 0.00 6.23 -0.12
418.00 288.00 0.00 6.21 -0.12
419.00 288.00 0.00 6.19 -0.13
420.00 288.00 0.00 6.17 -0.13
421.00 288.00 0.00 6.15 -0.13
422.00 288.00 0.00 6.13 -0.13
423.00 288.00 0.00 6.11 -0.14
424.00 288.00 0.00 6.09 -0.14
425.00 288.00 0.00 6.07 -0.14
426.00 288.00 0.00 6.05 -0.15
427.00 288.00 0.00 6.03 -0.15
428.00 288.00 0.00 6.01 -0.15
429.00 288.00 0.00 5.99 -0.16
430.00 288.00 0.00 5.97 -0.16
431.00 288.00 0.00 5.95 -0.16
432.00 288.00 0.00 5.93 -0.16
433.00 288.00 0.00 5.91 -0.17
434.00 288.00 0.00 5.89 -0.17
435.00 288.00 0.00 5.87 -0.17
436.00 288.00 0.00 5.85 -0.18
437.00 288.00 0.00 5.83 -0.18
438.00 288.00 0.00 5.81 -0.18
439.00 288.00 0.00 5.79 -0.19
440.00 288.00 0.00 5.77 -0.19
441.00 288.00 0.00 5.75 -0.19
442.00 288.00 0.00 5.73 -0.20
443.00 288.00 0.00 5.71 -0.20
444.00 288.00 0.00 5.69 -0.20
445.00 288.00 0.00 5.67 -0.20
446.00 288.00 0.00 5.65 -0.21
447.00 288.00 0.00 5.63 -0.21
448.00 288.00 0.00 5.61 -0.21
449.00 288.00 0.00 5.59 -0.22
450.00 288.00 0.00 5.57 -0.22
451.00 288.00 0.00 5.55 -0.22
452.00 288.00 0.00 5.53 -0.23
453.00 288.00 0.00 5.51 -0.23
454.00 288.00 0.00 5.49 -0.23
455.00 288.00 0.00 5.47 -0.24
456.00 288.00 0.00 5.45 -0.24
457.00 288.00 0.00 5.43 -0.24
458.00 288.00 0.00 5.41 -0.24
459.00 288.00 0.00 5.39 -0.25
460.00 288.00 0.00 5.37 -0.25
461.00 288.00 0.00 5.35 -0.25
462.00 288.00 0.00 5.33 -0.26
463.00 288.00 0.00 5.31 -0.26
464.00 288.00 0.00 5.29 -0.26
465.00 288.00 0.00 5.27 -0.27
466.00 288.00 0.00 5.25 -0.27
467.00 288.00 0.00 5.23 -0.27
468.00 288.00 0.00 5.21 -0.27
469.00 288.00 0.00 5.19 -0.28
470.00 288.00 0.00 5.17 -0.28
471.00 288.00 0.00 5.15 -0.28
472.00 288.00 0.00 5.13 -0.29
473.00 288.00 0.00 5.12 -0.29
474.00 288.00 0.00 5.10 -0.29
475.00 288.00 0.00 5.08 -0.29
476.00 288.00 0.00 5.06 -0.30
477.00 288.00 0.00 5.04 -0.30
478.00 288.00 0.00 5.02 -0.30
479.00 288.00 0.00 5.00 -0.31
480.00 288.00 0.00 4.99 -0.31
481.00 288.00 0.00 4.97 -0.31
482.00 288.00 0.00 4.95 -0.31
483.00 288.00 0.00 4.93 -0.32
484.00 288.00 0.00 4.92 -0.32
485.00 288.00 0.00 4.90 -0.32
486.00 288.00 0.00 4.88 -0.32
487.00 288.00 0.00 4.86 -0.33
488.00 288.00 0.00 4.85 -0.33
489.00 288.00 0.00 4.83 -0.33
490.00 288.00 0.00 4.81 -0.34
491.00 288.00 0.00 4.79 -0.34
492.00 288.00 0.00 4.78 -0.34
493.00 288.00 0.00 4.76 -0.34
494.00 288.00 0.00 4.74 -0.35
495.00 288.00 0.00 4.73 -0.35
496.00 288.00 0.00 4.71 -0.35
497.00 288.00 0.00 4.70 -0.35
498.00 288.00 0.00 4.68 -0.36
499.00 288.00 0.00 4.66 -0.36
500.00 288.00 0.00 4.65 -0.36
501.00 288.00 0.00 4.63 -0.36
502.00 288.00 0.00 4.62 -0.37
503.00 288.00 0.00 4.60 -0.37
504.00 288.00 0.00 4.58 -0.37
505.00 288.00 0.00 4.57 -0.37
506.00 288.00 0.00 4.55 -0.37
507.00 288.00 0.00 4.54 -0.38
508.00 288.00 0.00 4.52 -0.38
509.00 288.00 0.00 4.51 -0.38
510.00 288.00 0.00 4.49 -0.38
511.00 288.00 0.00 4.48 -0.39
512.00 288.00 0.00 4.47 -0.39
513.00 288.00 0.00 4.45 -0.39
514.00 288.00 0.00 4.44 -0.39
515.00 288.00 0.00 4.42 -0.39
516.00 288.00 0.00 4.41 -0.40
517.00 288.00 0.00 4.39 -0.40
518.00 288.00 0.00 4.38 -0.40
519.00 288.00 0.00 4.37 -0.40
520.00 288.00 0.00 4.35 -0.41
521.00 288.00 0.00 4.34 -0.41
522.00 288.00 0.00 4.33 -0.41
523.00 288.00 0.00 4.31 -0.41
524.00 288.00 0.00 4.30 -0.41
525.00 288.00 0.00 4.29 -0.42
526.00 288.00 0.00 4.27 -0.42
527.00 288.00 0.00 4.26 -0.42
528.00 288.00 0.00 4.25 -0.42
529.00 288.00 0.00 4.23 -0.42
530.00 288.00 0.00 4.22 -0.42
531.00 288.00 0.00 4.21 -0.43
532.00 288.00 0.00 4.20 -0.43
533.00 288.00 0.00 4.18 -0.43
534.00 288.00 0.00 4.17 -0.43
535.00 288.00 0.00 4.16 -0.43
536.00 288.00 0.00 4.15 -0.44
537.00 288.00 0.00 4.14 -0.44
538.00 288.00 0.00 4.13 -0.44
539.00 288.00 0.00 4.11 -0.44
540.00 288.00 0.00 4.10 -0.44
541.00 288.00 0.00 4.09 -0.44
542.00 288.00 0.00 4.08 -0.45
543.00 288.00 0.00 4.07 -0.45
544.00 288.00 0.00 4.06 -0.45
545.00 288.00 0.00 4.05 -0.45
546.00 288.00 0.00 4.04 -0.45
547.00 288.00 0.00 4.03 -0.45
548.00 288.00 0.00 4.01 -0.46
549.00 288.00 0.00 4.00 -0.46
550.00 288.00 0.00 3.99 -0.46
551.00 288.00 0.00 3.98 -0.46
552.00 288.00 0.00 3.97 -0.46
553.00 288.00 0.00 3.96 -0.46
554.00 288.00 0.00 3.95 -0.47
555.00 288.00 0.00 3.94 -0.47
556.00 288.00 0.00 3.93 -0.47
557.00 288.00 0.00 3.92 -0.47
558.00 288.00 0.00 3.91 -0.47
559.00 288.00 0.00 3.91 -0.47
560.00 288.00 0.00 3.90 -0.47
561.00 288.00 0.00 3.89 -0.48
562.00 288.00 0.00 3.88 -0.48
563.00 288.00 0.00 3.87 -0.48
564.00 288.00 0.00 3.86 -0.48
565.00 288.00 0.00 3.85 -0.48
566.00 288.00 0.00 3.84 -0.48
567.00 288.00 0.00 3.83 -0.48
568.00 288.00 0.00 3.83 -0.48
569.00 288.00 0.00 3.82 -0.49
570.00 288.00 0.00 3.81 -0.49
571.00 288.00 0.00 3.80 -0.49
572.00 288.00 0.00 3.79 -0.49
573.00 288.00 0.00 3.79 -0.49
574.00 288.00 0.00 3.78 -0.49
575.00 288.00 0.00 3.77 -0.49
576.00 288.00 0.00 3.76 -0.49
577.00 288.00 0.00 3.76 -0.50
578.00 288.00 0.00 3.75 -0.50
579.00 288.00 0.00 3.74 -0.50
580.00 288.00 0.00 3.74 -0.50
581.00 288.00 0.00 3.73 -0.50
582.00 288.00 0.00 3.72 -0.50
583.00 288.00 0.00 3.71 -0.50
584.00 288.00 0.00 3.71 -0.50
585.00 288.00 0.00 3.70 -0.50
586.00 288.00 0.00 3.70 -0.50
587.00 288.00 0.00 3.69 -0.51
588.00 288.00 0.00 3.68 -0.51
589.00 288.00 0.00 3.68 -0.51
590.00 288.00 0.00 3.67 -0.51
591.00 288.00 0.00 3.67 -0.51
592.00 288.00 0.00 3.66 -0.51
593.00 288.00 0.00 3.65 -0.51
594.00 288.00 0.00 3.65 -0.51
595.00 288.00 0.00 3.64 -0.51
596.00 288.00 0.00 3.64 -0.51
597.00 288.00 0.00 3.63 -0.51
598.00 288.00 0.00 3.63 -0.51
599.00 288.00 0.00 3.62 -0.52
600.00 288.00 0.00 3.62 -0.52
601.00 288.00 0.00 3.61 -0.52
602.00 288.00 0.00 3.61 -0.52
603.00 288.00 0.00 3.60 -0.52
604.00 288.00 0.00 3.60 -0.52
605.00 288.00 0.00 3.60 -0.52
606.00 288.00 0.00 3.59 -0.52
607.00 288.00 0.00 3.59 -0.52
608.00 288.00 0.00 3.58 -0.52
609.00 288.00 0.00 3.58 -0.52
610.00 288.00 0.00 3.58 -0.52
611.00 288.00 0.00 3.57 -0.52
612.00 288.00 0.00 3.57 -0.52
613.00 288.00 0.00 3.57 -0.52
614.00 288.00 0.00 3.56 -0.52
615.00 288.00 0.00 3.56 -0.53
616.00 288.00 0.00 3.56 -0.53
617.00 288.00 0.00 3.55 -0.53
618.00 288.00 0.00 3.55 -0.53
619.00 288.00 0.00 3.55 -0.53
620.00 288.00 0.00 3.55 -0.53
621.00 288.00 0.00 3.54 -0.53
622.00 288.00 0.00 3.54 -0.53
623.00 288.00 0.00 3.54 -0.53
624.00 288.00 0.00 3.54 -0.53
625.00 288.00 0.00 3.53 -0.53
626.00 288.00 0.00 3.53 -0.53
627.00 288.00 0.00 3.53 -0.53
628.00 288.00 0.00 3.53 -0.53
629.00 288.00 0.00 3.53 -0.53
630.00 288.00 0.00 3.53 -0.53
631.00 288.00 0.00 3.52 -0.53
632.00 288.00 0.00 3.52 -0.53
633.00 288.00 0.00 3.52 -0.53
634.00 288.00 0.00 3.52 -0.53
635.00 288.00 0.00 3.52 -0.53
636.00 288.00 0.00 3.52 -0.53
637.00 288.00 0.00 3.52 -0.53
638.00 288.00 0.00 3.52 -0.53
639.00 288.00 0.00 3.52 -0.53
640.00 288.00 0.00 3.52 -0.53
641.00 288.00 0.00 3.52 -0.53
642.00 288.00 0.00 3.52 -0.53
643.00 288.00 0.00 3.52 -0.53
644.00 288.00 0.00 3.52 -0.53
645.00 288.00 0.00 3.52 -0.53
646.00 288.00 0.00 3.52 -0.53
647.00 288.00 0.00 3.52 -0.53
648.00 288.00 0.00 3.52 -0.53
649.00 288.00 0.00 3.52 -0.53
650.00 288.00 0.00 3.52 -0.53
651.00 288.00 0.00 3.52 -0.53
652.00 288.00 0.00 3.52 -0.53
653.00 288.00 0.00 3.52 -0.53
654.00 288.00 0.00 3.52 -0.53
655.00 288.00 0.00 3.52 -0.53
656.00 288.00 0.00 3.52 -0.53
657.00 288.00 0.00 3.52 -0.53
658.00 288.00 0.00 3.52 -0.53
659.00 288.00 0.00 3.52 -0.53
660.00 288.00 0.00 3.52 -0.53
661.00 288.00 0.00 3.52 -0.53
662.00 288.00 0.00 3.52 -0.53
663.00 288.00 0.00 3.52 -0.53
664.00 288.00 0.00 3.52 -0.53
665.00 288.00 0.00 3.52 -0.53
666.00 288.00 0.00 3.52 -0.53
667.00 288.00 0.00 3.52 -0.53
668.00 288.00 0.00 3.52 -0.53
669.00 288.00 0.00 3.52 -0.53
670.00 288.00 0.00 3.52 -0.53
671.00 288.00 0.00 3.52 -0.53
672.00 288.00 0.00 3.52 -0.53
673.00 288.00 0.00 3.52 -0.53
674.00 288.00 0.00 3.52 -0.53
675.00 288.00 0.00 3.52 -0.53
676.00 288.00 0.00 3.52 -0.53
677.00 288.00 0.00 3.52 -0.53
678.00 288.00 0.00 3.52 -0.53
679.00 288.00 0.00 3.52 -0.53
680.00 288.00 0.00 3.52 -0.53
681.00 288.00 0.00 3.52 -0.53
682.00 288.00 0.00 3.52 -0.53
683.00 288.00 0.00 3.52 -0.53
684.00 288.00 0.00 3.52 -0.53
685.00 288.00 0.00 3.52 -0.53
686.00 288.00 0.00 3.52 -0.53
687.00 288.00 0.00 3.52 -0.53
688.00 288.00 0.00 3.52 -0.53
689.00 288.00 0.00 3.52 -0.53
690.00 288.00 0.00 3.52 -0.53
691.00 288.00 0.00 3.52 -0.53
692.00 288.00 0.00 3.52 -0.53
693.00 288.00 0.00 3.52 -0.53
694.00 288.00 0.00 3.52 -0.53
695.00 288.00 0.00 3.52 -0.53
696.00 288.00 0.00 3.52 -0.53
697.00 288.00 0.00 3.52 -0.53
698.00 288.00 0.00 3.52 -0.53
699.00 288.00 0.00 3.52 -0.53
700.00 288.00 0.00 3.52 -0.53
701.00 288.00 0.00 3.52 -0.53
702.00 288.00 0.00 3.52 -0.53
703.00 288.00 0.00 3.52 -0.53
704.00 288.00 0.00 3.52 -0.53
705.00 288.00 0.00 3.52 -0.53
706.00 288.00 0.00 3.52 -0.53
707.00 288.00 0.00 3.52 -0.53
708.00 288.00 0.00 3.52 -0.53
709.00 288.00 0.00 3.52 -0.53
710.00 288.00 0.00 3.52 -0.53
711.00 288.00 0.00 3.52 -0.53
712.00 288.00 0.00 3.52 -0.53
713.00 288.00 0.00 3.52 -0.53
714.00 288.00 0.00 3.52 -0.53
715.00 288.00 0.00 3.52 -0.53
716.00 288.00 0.00 3.52 -0.53
717.00 288.00 0.00 3.52 -0.53
718.00 288.00 0.00 3.52 -0.53
719.00 288.00 0.00 3.52 -0.53
720.00 288.00 0.00 3.52 -0.53
721.00 288.00 0.00 3.52 -0.53
722.00 288.00 0.00 3.52 -0.53
723.00 288.00 0.00 3.52 -0.53
724.00 288.00 0.00 3.52 -0.53
725.00 288.00 0.00 3.52 -0.53
726.00 288.00 0.00 3.52 -0.53
727.00 288.00 0.00 3.52 -0.53
728.00 288.00 0.00 3.52 -0.53
729.00 288.00 0.00 3.52 -0.53
730.00 288.00 0.00 3.52 -0.53
731.00 288.00 0.00 3.52 -0.53
732.00 288.00 0.00 3.52 -0.53
733.00 288.00 0.00 3.52 -0.53
734.00 288.00 0.00 3.52 -0.53
735.00 288.00 0.00 3.52 -0.53
736.00 288.00 0.00 3.52 -0.53
737.00 288.00 0.00 3.52 -0.53
738.00 288.00 0.00 3.52 -0.53
739.00 288.00 0.00 3.52 -0.53
740.00 288.00 0.00 3.52 -0.53
741.00 288.00 0.00 3.52 -0.53
742.00 288.00 0.00 3.52 -0.53
743.00 288.00 0.00 3.52 -0.53
744.00 288.00 0.00 3.52 -0.53
745.00 288.00 0.00 3.52 -0.53
746.00 288.00 0.00 3.52 -0.53
747.00 288.00 0.00 3.52 -0.53
748.00 288.00 0.00 3.52 -0.53
749.00 288.00 0.00 3.52 -0.53
750.00 288.00 0.00 3.52 -0.53
751.00 288.00 0.00 3.52 -0.53
752.00 288.00 0.00 3.52 -0.53
753.00 288.00 0.00 3.52 -0.53
754.00 288.00 0.00 3.52 -0.53
755.00 288.00 0.00 3.52 -0.53
756.00 288.00 0.00 3.52 -0.53
757.00 288.00 0.00 3.52 -0.53
758.00 288.00 0.00 3.52 -0.53
759.00 288.00 0.00 3.52 -0.53
760.00 288.00 0.00 3.52 -0.53
761.00 288.00 0.00 3.52 -0.53
762.00 288.00 0.00 3.52 -0.53
763.00 288.00 0.00 3.52 -0.53
764.00 288.00 0.00 3.52 -0.53
765.00 288.00 0.00 3.52 -0.53
766.00 288.00 0.00 3.52 -0.53
767.00 288.00 0.00 3.52 -0.53
768.00 288.00 0.00 3.52 -0.53
769.00 288.00 0.00 3.52 -0.53
770.00 288.00 0.00 3.52 -0.53
771.00 288.00 0.00 3.52 -0.53
772.00 288.00 0.00 3.52 -0.53
773.00 288.00 0.00 3.52 -0.53
774.00 288.00 0.00 3.52 -0.53
775.00 288.00 0.00 3.52 -0.53
776.00 288.00 0.00 3.52 -0.53
777.00 288.00 0.00 3.52 -0.53
778.00 288.00 0.00 3.52 -0.53
779.00 288.00 0.00 3.52 -0.53
780.00 288.00 0.00 3.52 -0.53
781.00 288.00 0.00 3.52 -0.53
782.00 288.00 0.00 3.52 -0.53
783.00 288.00 0.00 3.52 -0.53
784.00 288.00 0.00 3.52 -0.53
785.00 288.00 0.00 3.52 -0.53
786.00 288.00 0.00 3.52 -0.53
787.00 288.00 0.00 3.52 -0.53
788.00 288.00 0.00 3.52 -0.53
789.00 288.00 0.00 3.52 -0.53
790.00 288.00 0.00 3.52 -0.53
791.00 288.00 0.00 3.52 -0.53
792.00 288.00 0.00 3.52 -0.53
793.00 288.00 0.00 3.52 -0.53
794.00 288.00 0.00 3.52 -0.53
795.00 288.00 0.00 3.52 -0.53
796.00 288.00 0.00 3.52 -0.53
797.00 288.00 0.00 3.52 -0.53
798.00 288.00 0.00 3.52 -0.53
799.00 288.00 0.00 3.52 -0.53
800.00 288.00 0.00 3.52 -0.53
801.00 288.00 0.00 3.52 -0.53
802.00 288.00 0.00 3.52 -0.53
803.00 288.00 0.00 3.52 -0.53
804.00 288.00 0.00 3.52 -0.53
805.00 288.00 0.00 3.52 -0.53
806.00 288.00 0.00 3.52 -0.53
807.00 288.00 0.00 3.52 -0.53
808.00 288.00 0.00 3.52 -0.53
809.00 288.00 0.00 3.52 -0.53
810.00 288.00 0.00 3.52 -0.53
811.00 288.00 0.00 3.52 -0.53
812.00 288.00 0.00 3.52 -0.53
813.00 288.00 0.00 3.52 -0.53
814.00 288.00 0.00 3.52 -0.53
815.00 288.00 0.00 3.52 -0.53
816.00 288.00 0.00 3.52 -0.53
817.00 288.00 0.00 3.52 -0.53
818.00 288.00 0.00 3.52 -0.53
819.00 288.00 0.00 3.52 -0.53
820.00 288.00 0.00 3.52 -0.53
821.00 288.00 0.00 3.52 -0.53
822.00 288.00 0.00 3.52 -0.53
823.00 288.00 0.00 3.52 -0.53
824.00 288.00 0.00 3.52 -0.53
825.00 288.00 0.00 3.52 -0.53
826.00 288.00 0.00 3.52 -0.53
827.00 288.00 0.00 3.52 -0.53
828.00 288.00 0.00 3.52 -0.53
829.00 288.00 0.00 3.52 -0.53
830.00 288.00 0.00 3.52 -0.53
831.00 288.00 0.00 3.52 -0.53
