1000.00 288.00 00.00
0.00 288.00 0.00 9.62 6.58
1.00 288.00 0.00 9.62 6.58
2.00 288.00 0.00 9.62 6.58
3.00 288.00 0.00 9.62 6.58
4.00 288.00 0.00 9.62 6.58
5.00 288.00 0.00 9.62 6.58
6.00 288.00 0.00 9.62 6.58
7.00 288.00 0.00 9.62 6.58
8.00 288.00 0.00 9.62 6.58
9.00 288.00 0.00 9.62 6.58
10.00 288.00 0.00 9.62 6.58
11.00 288.00 0.00 9.62 6.58
12.00 288.00 0.00 9.62 6.58
13.00 288.00 0.00 9.62 6.58
14.00 288.00 0.00 9.62 6.58
15.00 288.00 0.00 9.62 6.58
16.00 288.00 0.00 9.62 6.58
17.00 288.00 0.00 9.62 6.58
18.00 288.00 0.00 9.62 6.58
19.00 288.00 0.00 9.62 6.58
20.00 288.00 0.00 9.62 6.58
21.00 288.00 0.00 9.62 6.58
22.00 288.00 0.00 9.62 6.58
23.00 288.00 0.00 9.62 6.58
24.00 288.00 0.00 9.62 6.58
25.00 288.00 0.00 9.62 6.58
26.00 288.00 0.00 9.62 6.58
27.00 288.00 0.00 9.62 6.58
28.00 288.00 0.00 9.62 6.58
29.00 288.00 0.00 9.62 6.58
30.00 288.00 0.00 9.62 6.58
31.00 288.00 0.00 9.62 6.58
32.00 288.00 0.00 9.62 6.58
33.00 288.00 0.00 9.62 6.58
34.00 288.00 0.00 9.62 6.58
35.00 288.00 0.00 9.62 6.58
36.00 288.00 0.00 9.62 6.58
37.00 288.00 0.00 9.62 6.58
38.00 288.00 0.00 9.62 6.58
39.00 288.00 0.00 9.62 6.58
40.00 288.00 0.00 9.62 6.58
41.00 288.00 0.00 9.62 6.58
42.00 288.00 0.00 9.62 6.58
43.00 288.00 0.00 9.62 6.58
44.00 288.00 0.00 9.62 6.58
45.00 288.00 0.00 9.62 6.58
46.00 288.00 0.00 9.62 6.58
47.00 288.00 0.00 9.62 6.58
48.00 288.00 0.00 9.62 6.58
49.00 288.00 0.00 9.62 6.58
50.00 288.00 0.00 9.62 6.58
51.00 288.00 0.00 9.62 6.58
52.00 288.00 0.00 9.62 6.58
53.00 288.00 0.00 9.62 6.58
54.00 288.00 0.00 9.62 6.58
55.00 288.00 0.00 9.62 6.58
56.00 288.00 0.00 9.62 6.58
57.00 288.00 0.00 9.62 6.58
58.00 288.00 0.00 9.62 6.58
59.00 288.00 0.00 9.62 6.58
60.00 288.00 0.00 9.62 6.58
61.00 288.00 0.00 9.62 6.58
62.00 288.00 0.00 9.62 6.58
63.00 288.00 0.00 9.62 6.58
64.00 288.00 0.00 9.62 6.58
65.00 288.00 0.00 9.62 6.58
66.00 288.00 0.00 9.62 6.58
67.00 288.00 0.00 9.62 6.58
68.00 288.00 0.00 9.62 6.58
69.00 288.00 0.00 9.62 6.58
70.00 288.00 0.00 9.62 6.58
71.00 288.00 0.00 9.62 6.58
72.00 288.00 0.00 9.62 6.58
73.00 288.00 0.00 9.62 6.58
74.00 288.00 0.00 9.62 6.58
75.00 288.00 0.00 9.62 6.58
76.00 288.00 0.00 9.62 6.58
77.00 288.00 0.00 9.62 6.58
78.00 288.00 0.00 9.62 6.58
79.00 288.00 0.00 9.62 6.58
80.00 288.00 0.00 9.62 6.58
81.00 288.00 0.00 9.62 6.58
82.00 288.00 0.00 9.62 6.58
83.00 288.00 0.00 9.62 6.58
84.00 288.00 0.00 9.62 6.58
85.00 288.00 0.00 9.62 6.58
86.00 288.00 0.00 9.62 6.58
87.00 288.00 0.00 9.62 6.58
88.00 288.00 0.00 9.62 6.58
89.00 288.00 0.00 9.62 6.58
90.00 288.00 0.00 9.62 6.58
91.00 288.00 0.00 9.62 6.58
92.00 288.00 0.00 9.62 6.58
93.00 288.00 0.00 9.62 6.58
94.00 288.00 0.00 9.62 6.58
95.00 288.00 0.00 9.62 6.58
96.00 288.00 0.00 9.62 6.58
97.00 288.00 0.00 9.62 6.58
98.00 288.00 0.00 9.62 6.58
99.00 288.00 0.00 9.62 6.58
100.00 288.00 0.00 9.62 6.58
101.00 288.00 0.00 9.62 6.58
102.00 288.00 0.00 9.62 6.58
103.00 288.00 0.00 9.62 6.58
104.00 288.00 0.00 9.62 6.58
105.00 288.00 0.00 9.62 6.58
106.00 288.00 0.00 9.62 6.58
107.00 288.00 0.00 9.62 6.58
108.00 288.00 0.00 9.62 6.58
109.00 288.00 0.00 9.62 6.58
110.00 288.00 0.00 9.62 6.58
111.00 288.00 0.00 9.62 6.58
112.00 288.00 0.00 9.62 6.58
113.00 288.00 0.00 9.62 6.58
114.00 288.00 0.00 9.62 6.58
115.00 288.00 0.00 9.62 6.58
116.00 288.00 0.00 9.62 6.58
117.00 288.00 0.00 9.62 6.58
118.00 288.00 0.00 9.62 6.58
119.00 288.00 0.00 9.62 6.58
120.00 288.00 0.00 9.62 6.58
121.00 288.00 0.00 9.62 6.58
122.00 288.00 0.00 9.62 6.57
123.00 288.00 0.00 9.62 6.57
124.00 288.00 0.00 9.62 6.57
125.00 288.00 0.00 9.62 6.57
126.00 288.00 0.00 9.62 6.57
127.00 288.00 0.00 9.62 6.57
128.00 288.00 0.00 9.62 6.57
129.00 288.00 0.00 9.62 6.57
130.00 288.00 0.00 9.61 6.57
131.00 288.00 0.00 9.61 6.56
132.00 288.00 0.00 9.61 6.56
133.00 288.00 0.00 9.61 6.56
134.00 288.00 0.00 9.61 6.56
135.00 288.00 0.00 9.61 6.56
136.00 288.00 0.00 9.61 6.55
137.00 288.00 0.00 9.60 6.55
138.00 288.00 0.00 9.60 6.55
139.00 288.00 0.00 9.60 6.55
140.00 288.00 0.00 9.60 6.55
141.00 288.00 0.00 9.60 6.54
142.00 288.00 0.00 9.59 6.54
143.00 288.00 0.00 9.59 6.54
144.00 288.00 0.00 9.59 6.53
145.00 288.00 0.00 9.59 6.53
146.00 288.00 0.00 9.58 6.53
147.00 288.00 0.00 9.58 6.53
148.00 288.00 0.00 9.58 6.52
149.00 288.00 0.00 9.57 6.52
150.00 288.00 0.00 9.57 6.51
151.00 288.00 0.00 9.57 6.51
152.00 288.00 0.00 9.57 6.51
153.00 288.00 0.00 9.56 6.50
154.00 288.00 0.00 9.56 6.50
155.00 288.00 0.00 9.56 6.50
156.00 288.00 0.00 9.55 6.49
157.00 288.00 0.00 9.55 6.49
158.00 288.00 0.00 9.55 6.48
159.00 288.00 0.00 9.54 6.48
160.00 288.00 0.00 9.54 6.47
161.00 288.00 0.00 9.53 6.47
162.00 288.00 0.00 9.53 6.46
163.00 288.00 0.00 9.53 6.46
164.00 288.00 0.00 9.52 6.45
165.00 288.00 0.00 9.52 6.45
166.00 288.00 0.00 9.51 6.44
167.00 288.00 0.00 9.51 6.44
168.00 288.00 0.00 9.50 6.43
169.00 288.00 0.00 9.50 6.42
170.00 288.00 0.00 9.50 6.42
171.00 288.00 0.00 9.49 6.41
172.00 288.00 0.00 9.49 6.41
173.00 288.00 0.00 9.48 6.40
174.00 288.00 0.00 9.48 6.39
175.00 288.00 0.00 9.47 6.39
176.00 288.00 0.00 9.47 6.38
177.00 288.00 0.00 9.46 6.37
178.00 288.00 0.00 9.46 6.37
179.00 288.00 0.00 9.45 6.36
180.00 288.00 0.00 9.44 6.35
181.00 288.00 0.00 9.44 6.34
182.00 288.00 0.00 9.43 6.34
183.00 288.00 0.00 9.43 6.33
184.00 288.00 0.00 9.42 6.32
185.00 288.00 0.00 9.42 6.31
186.00 288.00 0.00 9.41 6.30
187.00 288.00 0.00 9.40 6.29
188.00 288.00 0.00 9.40 6.28
189.00 288.00 0.00 9.39 6.28
190.00 288.00 0.00 9.39 6.27
191.00 288.00 0.00 9.38 6.26
192.00 288.00 0.00 9.37 6.25
193.00 288.00 0.00 9.37 6.24
194.00 288.00 0.00 9.36 6.23
195.00 288.00 0.00 9.35 6.22
196.00 288.00 0.00 9.35 6.21
197.00 288.00 0.00 9.34 6.20
198.00 288.00 0.00 9.33 6.19
199.00 288.00 0.00 9.33 6.18
200.00 288.00 0.00 9.32 6.16
201.00 288.00 0.00 9.31 6.15
202.00 288.00 0.00 9.30 6.14
203.00 288.00 0.00 9.30 6.13
204.00 288.00 0.00 9.29 6.12
205.00 288.00 0.00 9.28 6.11
206.00 288.00 0.00 9.27 6.09
207.00 288.00 0.00 9.27 6.08
208.00 288.00 0.00 9.26 6.07
209.00 288.00 0.00 9.25 6.06
210.00 288.00 0.00 9.24 6.04
211.00 288.00 0.00 9.23 6.03
212.00 288.00 0.00 9.23 6.02
213.00 288.00 0.00 9.22 6.00
214.00 288.00 0.00 9.21 5.99
215.00 288.00 0.00 9.20 5.97
216.00 288.00 0.00 9.19 5.96
217.00 288.00 0.00 9.18 5.94
218.00 288.00 0.00 9.18 5.93
219.00 288.00 0.00 9.17 5.91
220.00 288.00 0.00 9.16 5.90
221.00 288.00 0.00 9.15 5.88
222.00 288.00 0.00 9.14 5.87
223.00 288.00 0.00 9.13 5.85
224.00 288.00 0.00 9.12 5.83
225.00 288.00 0.00 9.11 5.82
226.00 288.00 0.00 9.10 5.80
227.00 288.00 0.00 9.09 5.78
228.00 288.00 0.00 9.08 5.77
229.00 288.00 0.00 9.07 5.75
230.00 288.00 0.00 9.07 5.73
231.00 288.00 0.00 9.06 5.71
232.00 288.00 0.00 9.05 5.69
233.00 288.00 0.00 9.04 5.67
234.00 288.00 0.00 9.03 5.66
235.00 288.00 0.00 9.02 5.64
236.00 288.00 0.00 9.01 5.62
237.00 288.00 0.00 9.00 5.60
238.00 288.00 0.00 8.99 5.58
239.00 288.00 0.00 8.97 5.56
240.00 288.00 0.00 8.96 5.53
241.00 288.00 0.00 8.95 5.51
242.00 288.00 0.00 8.94 5.49
243.00 288.00 0.00 8.93 5.47
244.00 288.00 0.00 8.92 5.45
245.00 288.00 0.00 8.91 5.42
246.00 288.00 0.00 8.90 5.40
247.00 288.00 0.00 8.89 5.38
248.00 288.00 0.00 8.88 5.36
249.00 288.00 0.00 8.87 5.33
250.00 288.00 0.00 8.85 5.31
251.00 288.00 0.00 8.84 5.28
252.00 288.00 0.00 8.83 5.26
253.00 288.00 0.00 8.82 5.23
254.00 288.00 0.00 8.81 5.21
255.00 288.00 0.00 8.80 5.18
256.00 288.00 0.00 8.79 5.16
257.00 288.00 0.00 8.77 5.13
258.00 288.00 0.00 8.76 5.10
259.00 288.00 0.00 8.75 5.08
260.00 288.00 0.00 8.74 5.05
261.00 288.00 0.00 8.72 5.02
262.00 288.00 0.00 8.71 4.99
263.00 288.00 0.00 8.70 4.96
264.00 288.00 0.00 8.69 4.94
265.00 288.00 0.00 8.67 4.91
266.00 288.00 0.00 8.66 4.88
267.00 288.00 0.00 8.65 4.85
268.00 288.00 0.00 8.64 4.82
269.00 288.00 0.00 8.62 4.79
270.00 288.00 0.00 8.61 4.75
271.00 288.00 0.00 8.60 4.72
272.00 288.00 0.00 8.58 4.69
273.00 288.00 0.00 8.57 4.66
274.00 288.00 0.00 8.56 4.63
275.00 288.00 0.00 8.54 4.59
276.00 288.00 0.00 8.53 4.56
277.00 288.00 0.00 8.52 4.53
278.00 288.00 0.00 8.50 4.49
279.00 288.00 0.00 8.49 4.46
280.00 288.00 0.00 8.48 4.42
281.00 288.00 0.00 8.46 4.39
282.00 288.00 0.00 8.45 4.35
283.00 288.00 0.00 8.43 4.32
284.00 288.00 0.00 8.42 4.28
285.00 288.00 0.00 8.41 4.24
286.00 288.00 0.00 8.39 4.20
287.00 288.00 0.00 8.38 4.17
288.00 288.00 0.00 8.36 4.13
289.00 288.00 0.00 8.35 4.09
290.00 288.00 0.00 8.33 4.05
291.00 288.00 0.00 8.32 4.01
292.00 288.00 0.00 8.30 3.97
293.00 288.00 0.00 8.29 3.93
294.00 288.00 0.00 8.27 3.89
295.00 288.00 0.00 8.26 3.85
296.00 288.00 0.00 8.24 3.81
297.00 288.00 0.00 8.23 3.77
298.00 288.00 0.00 8.21 3.73
299.00 288.00 0.00 8.20 3.68
300.00 288.00 0.00 8.18 3.64
301.00 288.00 0.00 8.17 3.60
302.00 288.00 0.00 8.15 3.56
303.00 288.00 0.00 8.14 3.52
304.00 288.00 0.00 8.12 3.47
305.00 288.00 0.00 8.11 3.43
306.00 288.00 0.00 8.09 3.39
307.00 288.00 0.00 8.08 3.34
308.00 288.00 0.00 8.06 3.30
309.00 288.00 0.00 8.05 3.26
310.00 288.00 0.00 8.03 3.21
311.00 288.00 0.00 8.02 3.17
312.00 288.00 0.00 8.00 3.13
313.00 288.00 0.00 7.99 3.08
314.00 288.00 0.00 7.97 3.04
315.00 288.00 0.00 7.96 2.99
316.00 288.00 0.00 7.94 2.95
317.00 288.00 0.00 7.93 2.91
318.00 288.00 0.00 7.91 2.86
319.00 288.00 0.00 7.90 2.82
320.00 288.00 0.00 7.88 2.77
321.00 288.00 0.00 7.87 2.73
322.00 288.00 0.00 7.85 2.68
323.00 288.00 0.00 7.84 2.63
324.00 288.00 0.00 7.82 2.59
325.00 288.00 0.00 7.81 2.54
326.00 288.00 0.00 7.79 2.50
327.00 288.00 0.00 7.78 2.45
328.00 288.00 0.00 7.76 2.41
329.00 288.00 0.00 7.75 2.36
330.00 288.00 0.00 7.73 2.31
331.00 288.00 0.00 7.72 2.27
332.00 288.00 0.00 7.70 2.22
333.00 288.00 0.00 7.69 2.17
334.00 288.00 0.00 7.67 2.13
335.00 288.00 0.00 7.66 2.08
336.00 288.00 0.00 7.64 2.03
337.00 288.00 0.00 7.63 1.99
338.00 288.00 0.00 7.61 1.94
339.00 288.00 0.00 7.60 1.89
340.00 288.00 0.00 7.58 1.84
341.00 288.00 0.00 7.57 1.80
342.00 288.00 0.00 7.55 1.75
343.00 288.00 0.00 7.54 1.70
344.00 288.00 0.00 7.52 1.65
345.00 288.00 0.00 7.51 1.61
346.00 288.00 0.00 7.49 1.56
347.00 288.00 0.00 7.47 1.51
348.00 288.00 0.00 7.46 1.46
349.00 288.00 0.00 7.44 1.41
350.00 288.00 0.00 7.43 1.37
351.00 288.00 0.00 7.41 1.32
352.00 288.00 0.00 7.40 1.27
353.00 288.00 0.00 7.38 1.22
354.00 288.00 0.00 7.37 1.17
355.00 288.00 0.00 7.35 1.12
356.00 288.00 0.00 7.34 1.08
357.00 288.00 0.00 7.32 1.03
358.00 288.00 0.00 7.31 0.98
359.00 288.00 0.00 7.29 0.93
360.00 288.00 0.00 7.28 0.88
361.00 288.00 0.00 7.26 0.83
362.00 288.00 0.00 7.25 0.78
363.00 288.00 0.00 7.23 0.74
364.00 288.00 0.00 7.22 0.69
365.00 288.00 0.00 7.20 0.64
366.00 288.00 0.00 7.19 0.59
367.00 288.00 0.00 7.17 0.54
368.00 288.00 0.00 7.16 0.49
369.00 288.00 0.00 7.14 0.44
370.00 288.00 0.00 7.13 0.39
371.00 288.00 0.00 7.11 0.34
372.00 288.00 0.00 7.10 0.29
373.00 288.00 0.00 7.08 0.25
374.00 288.00 0.00 7.07 0.20
375.00 288.00 0.00 7.05 0.15
376.00 288.00 0.00 7.04 0.10
377.00 288.00 0.00 7.02 0.05
378.00 288.00 0.00 7.01 0.00
379.00 288.00 0.00 6.99 -0.05
380.00 288.00 0.00 6.98 -0.10
381.00 288.00 0.00 6.96 -0.15
382.00 288.00 0.00 6.95 -0.20
383.00 288.00 0.00 6.93 -0.25
384.00 288.00 0.00 6.92 -0.29
385.00 288.00 0.00 6.90 -0.34
386.00 288.00 0.00 6.89 -0.39
387.00 288.00 0.00 6.87 -0.44
388.00 288.00 0.00 6.86 -0.49
389.00 288.00 0.00 6.84 -0.54
390.00 288.00 0.00 6.83 -0.59
391.00 288.00 0.00 6.81 -0.64
392.00 288.00 0.00 6.80 -0.69
393.00 288.00 0.00 6.78 -0.74
394.00 288.00 0.00 6.77 -0.78
395.00 288.00 0.00 6.75 -0.83
396.00 288.00 0.00 6.74 -0.88
397.00 288.00 0.00 6.72 -0.93
398.00 288.00 0.00 6.71 -0.98
399.00 288.00 0.00 6.69 -1.03
400.00 288.00 0.00 6.68 -1.08
401.00 288.00 0.00 6.66 -1.12
402.00 288.00 0.00 6.65 -1.17
403.00 288.00 0.00 6.63 -1.22
404.00 288.00 0.00 6.62 -1.27
405.00 288.00 0.00 6.60 -1.32
406.00 288.00 0.00 6.59 -1.37
407.00 288.00 0.00 6.57 -1.41
408.00 288.00 0.00 6.56 -1.46
409.00 288.00 0.00 6.54 -1.51
410.00 288.00 0.00 6.53 -1.56
411.00 288.00 0.00 6.51 -1.61
412.00 288.00 0.00 6.49 -1.65
413.00 288.00 0.00 6.48 -1.70
414.00 288.00 0.00 6.46 -1.75
415.00 288.00 0.00 6.45 -1.80
416.00 288.00 0.00 6.43 -1.84
417.00 288.00 0.00 6.42 -1.89
418.00 288.00 0.00 6.40 -1.94
419.00 288.00 0.00 6.39 -1.99
420.00 288.00 0.00 6.37 -2.03
421.00 288.00 0.00 6.36 -2.08
422.00 288.00 0.00 6.34 -2.13
423.00 288.00 0.00 6.33 -2.17
424.00 288.00 0.00 6.31 -2.22
425.00 288.00 0.00 6.30 -2.27
426.00 288.00 0.00 6.28 -2.31
427.00 288.00 0.00 6.27 -2.36
428.00 288.00 0.00 6.25 -2.41
429.00 288.00 0.00 6.24 -2.45
430.00 288.00 0.00 6.22 -2.50
431.00 288.00 0.00 6.21 -2.54
432.00 288.00 0.00 6.19 -2.59
433.00 288.00 0.00 6.18 -2.63
434.00 288.00 0.00 6.16 -2.68
435.00 288.00 0.00 6.15 -2.73
436.00 288.00 0.00 6.13 -2.77
437.00 288.00 0.00 6.12 -2.82
438.00 288.00 0.00 6.10 -2.86
439.00 288.00 0.00 6.09 -2.91
440.00 288.00 0.00 6.07 -2.95
441.00 288.00 0.00 6.06 -2.99
442.00 288.00 0.00 6.04 -3.04
443.00 288.00 0.00 6.03 -3.08
444.00 288.00 0.00 6.01 -3.13
445.00 288.00 0.00 6.00 -3.17
446.00 288.00 0.00 5.98 -3.21
447.00 288.00 0.00 5.97 -3.26
448.00 288.00 0.00 5.95 -3.30
449.00 288.00 0.00 5.94 -3.34
450.00 288.00 0.00 5.92 -3.39
451.00 288.00 0.00 5.91 -3.43
452.00 288.00 0.00 5.89 -3.47
453.00 288.00 0.00 5.88 -3.52
454.00 288.00 0.00 5.86 -3.56
455.00 288.00 0.00 5.85 -3.60
456.00 288.00 0.00 5.83 -3.64
457.00 288.00 0.00 5.82 -3.68
458.00 288.00 0.00 5.80 -3.73
459.00 288.00 0.00 5.79 -3.77
460.00 288.00 0.00 5.77 -3.81
461.00 288.00 0.00 5.76 -3.85
462.00 288.00 0.00 5.74 -3.89
463.00 288.00 0.00 5.73 -3.93
464.00 288.00 0.00 5.71 -3.97
465.00 288.00 0.00 5.70 -4.01
466.00 288.00 0.00 5.68 -4.05
467.00 288.00 0.00 5.67 -4.09
468.00 288.00 0.00 5.65 -4.13
469.00 288.00 0.00 5.64 -4.17
470.00 288.00 0.00 5.62 -4.20
471.00 288.00 0.00 5.61 -4.24
472.00 288.00 0.00 5.59 -4.28
473.00 288.00 0.00 5.58 -4.32
474.00 288.00 0.00 5.57 -4.35
475.00 288.00 0.00 5.55 -4.39
476.00 288.00 0.00 5.54 -4.42
477.00 288.00 0.00 5.52 -4.46
478.00 288.00 0.00 5.51 -4.49
479.00 288.00 0.00 5.50 -4.53
480.00 288.00 0.00 5.48 -4.56
481.00 288.00 0.00 5.47 -4.59
482.00 288.00 0.00 5.46 -4.63
483.00 288.00 0.00 5.44 -4.66
484.00 288.00 0.00 5.43 -4.69
485.00 288.00 0.00 5.42 -4.72
486.00 288.00 0.00 5.40 -4.75
487.00 288.00 0.00 5.39 -4.79
488.00 288.00 0.00 5.38 -4.82
489.00 288.00 0.00 5.36 -4.85
490.00 288.00 0.00 5.35 -4.88
491.00 288.00 0.00 5.34 -4.91
492.00 288.00 0.00 5.33 -4.94
493.00 288.00 0.00 5.31 -4.96
494.00 288.00 0.00 5.30 -4.99
495.00 288.00 0.00 5.29 -5.02
496.00 288.00 0.00 5.28 -5.05
497.00 288.00 0.00 5.26 -5.08
498.00 288.00 0.00 5.25 -5.10
499.00 288.00 0.00 5.24 -5.13
500.00 288.00 0.00 5.23 -5.16
501.00 288.00 0.00 5.21 -5.18
502.00 288.00 0.00 5.20 -5.21
503.00 288.00 0.00 5.19 -5.23
504.00 288.00 0.00 5.18 -5.26
505.00 288.00 0.00 5.17 -5.28
506.00 288.00 0.00 5.16 -5.31
507.00 288.00 0.00 5.15 -5.33
508.00 288.00 0.00 5.13 -5.36
509.00 288.00 0.00 5.12 -5.38
510.00 288.00 0.00 5.11 -5.40
511.00 288.00 0.00 5.10 -5.42
512.00 288.00 0.00 5.09 -5.45
513.00 288.00 0.00 5.08 -5.47
514.00 288.00 0.00 5.07 -5.49
515.00 288.00 0.00 5.06 -5.51
516.00 288.00 0.00 5.05 -5.53
517.00 288.00 0.00 5.04 -5.56
518.00 288.00 0.00 5.03 -5.58
519.00 288.00 0.00 5.01 -5.60
520.00 288.00 0.00 5.00 -5.62
521.00 288.00 0.00 4.99 -5.64
522.00 288.00 0.00 4.98 -5.66
523.00 288.00 0.00 4.97 -5.67
524.00 288.00 0.00 4.96 -5.69
525.00 288.00 0.00 4.95 -5.71
526.00 288.00 0.00 4.94 -5.73
527.00 288.00 0.00 4.93 -5.75
528.00 288.00 0.00 4.93 -5.77
529.00 288.00 0.00 4.92 -5.78
530.00 288.00 0.00 4.91 -5.80
531.00 288.00 0.00 4.90 -5.82
532.00 288.00 0.00 4.89 -5.83
533.00 288.00 0.00 4.88 -5.85
534.00 288.00 0.00 4.87 -5.87
535.00 288.00 0.00 4.86 -5.88
536.00 288.00 0.00 4.85 -5.90
537.00 288.00 0.00 4.84 -5.91
538.00 288.00 0.00 4.83 -5.93
539.00 288.00 0.00 4.82 -5.94
540.00 288.00 0.00 4.82 -5.96
541.00 288.00 0.00 4.81 -5.97
542.00 288.00 0.00 4.80 -5.99
543.00 288.00 0.00 4.79 -6.00
544.00 288.00 0.00 4.78 -6.02
545.00 288.00 0.00 4.77 -6.03
546.00 288.00 0.00 4.77 -6.04
547.00 288.00 0.00 4.76 -6.06
548.00 288.00 0.00 4.75 -6.07
549.00 288.00 0.00 4.74 -6.08
550.00 288.00 0.00 4.73 -6.09
551.00 288.00 0.00 4.73 -6.11
552.00 288.00 0.00 4.72 -6.12
553.00 288.00 0.00 4.71 -6.13
554.00 288.00 0.00 4.70 -6.14
555.00 288.00 0.00 4.70 -6.15
556.00 288.00 0.00 4.69 -6.16
557.00 288.00 0.00 4.68 -6.18
558.00 288.00 0.00 4.67 -6.19
559.00 288.00 0.00 4.67 -6.20
560.00 288.00 0.00 4.66 -6.21
561.00 288.00 0.00 4.65 -6.22
562.00 288.00 0.00 4.65 -6.23
563.00 288.00 0.00 4.64 -6.24
564.00 288.00 0.00 4.63 -6.25
565.00 288.00 0.00 4.63 -6.26
566.00 288.00 0.00 4.62 -6.27
567.00 288.00 0.00 4.61 -6.28
568.00 288.00 0.00 4.61 -6.28
569.00 288.00 0.00 4.60 -6.29
570.00 288.00 0.00 4.60 -6.30
571.00 288.00 0.00 4.59 -6.31
572.00 288.00 0.00 4.58 -6.32
573.00 288.00 0.00 4.58 -6.33
574.00 288.00 0.00 4.57 -6.34
575.00 288.00 0.00 4.57 -6.34
576.00 288.00 0.00 4.56 -6.35
577.00 288.00 0.00 4.56 -6.36
578.00 288.00 0.00 4.55 -6.37
579.00 288.00 0.00 4.54 -6.37
580.00 288.00 0.00 4.54 -6.38
581.00 288.00 0.00 4.53 -6.39
582.00 288.00 0.00 4.53 -6.39
583.00 288.00 0.00 4.52 -6.40
584.00 288.00 0.00 4.52 -6.41
585.00 288.00 0.00 4.51 -6.41
586.00 288.00 0.00 4.51 -6.42
587.00 288.00 0.00 4.50 -6.42
588.00 288.00 0.00 4.50 -6.43
589.00 288.00 0.00 4.50 -6.44
590.00 288.00 0.00 4.49 -6.44
591.00 288.00 0.00 4.49 -6.45
592.00 288.00 0.00 4.48 -6.45
593.00 288.00 0.00 4.48 -6.46
594.00 288.00 0.00 4.47 -6.46
595.00 288.00 0.00 4.47 -6.47
596.00 288.00 0.00 4.47 -6.47
597.00 288.00 0.00 4.46 -6.48
598.00 288.00 0.00 4.46 -6.48
599.00 288.00 0.00 4.45 -6.49
600.00 288.00 0.00 4.45 -6.49
601.00 288.00 0.00 4.45 -6.50
602.00 288.00 0.00 4.44 -6.50
603.00 288.00 0.00 4.44 -6.50
604.00 288.00 0.00 4.44 -6.51
605.00 288.00 0.00 4.43 -6.51
606.00 288.00 0.00 4.43 -6.51
607.00 288.00 0.00 4.43 -6.52
608.00 288.00 0.00 4.43 -6.52
609.00 288.00 0.00 4.42 -6.53
610.00 288.00 0.00 4.42 -6.53
611.00 288.00 0.00 4.42 -6.53
612.00 288.00 0.00 4.41 -6.53
613.00 288.00 0.00 4.41 -6.54
614.00 288.00 0.00 4.41 -6.54
615.00 288.00 0.00 4.41 -6.54
616.00 288.00 0.00 4.40 -6.55
617.00 288.00 0.00 4.40 -6.55
618.00 288.00 0.00 4.40 -6.55
619.00 288.00 0.00 4.40 -6.55
620.00 288.00 0.00 4.40 -6.55
621.00 288.00 0.00 4.39 -6.56
622.00 288.00 0.00 4.39 -6.56
623.00 288.00 0.00 4.39 -6.56
624.00 288.00 0.00 4.39 -6.56
625.00 288.00 0.00 4.39 -6.56
626.00 288.00 0.00 4.39 -6.57
627.00 288.00 0.00 4.39 -6.57
628.00 288.00 0.00 4.38 -6.57
629.00 288.00 0.00 4.38 -6.57
630.00 288.00 0.00 4.38 -6.57
631.00 288.00 0.00 4.38 -6.57
632.00 288.00 0.00 4.38 -6.57
633.00 288.00 0.00 4.38 -6.57
634.00 288.00 0.00 4.38 -6.57
635.00 288.00 0.00 4.38 -6.58
636.00 288.00 0.00 4.38 -6.58
637.00 288.00 0.00 4.38 -6.58
638.00 288.00 0.00 4.38 -6.58
639.00 288.00 0.00 4.38 -6.58
640.00 288.00 0.00 4.38 -6.58
641.00 288.00 0.00 4.38 -6.58
642.00 288.00 0.00 4.38 -6.58
643.00 288.00 0.00 4.38 -6.58
644.00 288.00 0.00 4.38 -6.58
645.00 288.00 0.00 4.38 -6.58
646.00 288.00 0.00 4.38 -6.58
647.00 288.00 0.00 4.38 -6.58
648.00 288.00 0.00 4.38 -6.58
649.00 288.00 0.00 4.38 -6.58
650.00 288.00 0.00 4.38 -6.58
651.00 288.00 0.00 4.38 -6.58
652.00 288.00 0.00 4.38 -6.58
653.00 288.00 0.00 4.38 -6.58
654.00 288.00 0.00 4.38 -6.58
655.00 288.00 0.00 4.38 -6.58
656.00 288.00 0.00 4.38 -6.58
657.00 288.00 0.00 4.38 -6.58
658.00 288.00 0.00 4.38 -6.58
659.00 288.00 0.00 4.38 -6.58
660.00 288.00 0.00 4.38 -6.58
661.00 288.00 0.00 4.38 -6.58
662.00 288.00 0.00 4.38 -6.58
663.00 288.00 0.00 4.38 -6.58
664.00 288.00 0.00 4.38 -6.58
665.00 288.00 0.00 4.38 -6.58
666.00 288.00 0.00 4.38 -6.58
667.00 288.00 0.00 4.38 -6.58
668.00 288.00 0.00 4.38 -6.58
669.00 288.00 0.00 4.38 -6.58
670.00 288.00 0.00 4.38 -6.58
671.00 288.00 0.00 4.38 -6.58
672.00 288.00 0.00 4.38 -6.58
673.00 288.00 0.00 4.38 -6.58
674.00 288.00 0.00 4.38 -6.58
675.00 288.00 0.00 4.38 -6.58
676.00 288.00 0.00 4.38 -6.58
677.00 288.00 0.00 4.38 -6.58
678.00 288.00 0.00 4.38 -6.58
679.00 288.00 0.00 4.38 -6.58
680.00 288.00 0.00 4.38 -6.58
681.00 288.00 0.00 4.38 -6.58
682.00 288.00 0.00 4.38 -6.58
683.00 288.00 0.00 4.38 -6.58
684.00 288.00 0.00 4.38 -6.58
685.00 288.00 0.00 4.38 -6.58
686.00 288.00 0.00 4.38 -6.58
687.00 288.00 0.00 4.38 -6.58
688.00 288.00 0.00 4.38 -6.58
689.00 288.00 0.00 4.38 -6.58
690.00 288.00 0.00 4.38 -6.58
691.00 288.00 0.00 4.38 -6.58
692.00 288.00 0.00 4.38 -6.58
693.00 288.00 0.00 4.38 -6.58
694.00 288.00 0.00 4.38 -6.58
695.00 288.00 0.00 4.38 -6.58
696.00 288.00 0.00 4.38 -6.58
697.00 288.00 0.00 4.38 -6.58
698.00 288.00 0.00 4.38 -6.58
699.00 288.00 0.00 4.38 -6.58
700.00 288.00 0.00 4.38 -6.58
701.00 288.00 0.00 4.38 -6.58
702.00 288.00 0.00 4.38 -6.58
703.00 288.00 0.00 4.38 -6.58
704.00 288.00 0.00 4.38 -6.58
705.00 288.00 0.00 4.38 -6.58
706.00 288.00 0.00 4.38 -6.58
707.00 288.00 0.00 4.38 -6.58
708.00 288.00 0.00 4.38 -6.58
709.00 288.00 0.00 4.38 -6.58
710.00 288.00 0.00 4.38 -6.58
711.00 288.00 0.00 4.38 -6.58
712.00 288.00 0.00 4.38 -6.58
713.00 288.00 0.00 4.38 -6.58
714.00 288.00 0.00 4.38 -6.58
715.00 288.00 0.00 4.38 -6.58
716.00 288.00 0.00 4.38 -6.58
717.00 288.00 0.00 4.38 -6.58
718.00 288.00 0.00 4.38 -6.58
719.00 288.00 0.00 4.38 -6.58
720.00 288.00 0.00 4.38 -6.58
721.00 288.00 0.00 4.38 -6.58
722.00 288.00 0.00 4.38 -6.58
723.00 288.00 0.00 4.38 -6.58
724.00 288.00 0.00 4.38 -6.58
725.00 288.00 0.00 4.38 -6.58
726.00 288.00 0.00 4.38 -6.58
727.00 288.00 0.00 4.38 -6.58
728.00 288.00 0.00 4.38 -6.58
729.00 288.00 0.00 4.38 -6.58
730.00 288.00 0.00 4.38 -6.58
731.00 288.00 0.00 4.38 -6.58
732.00 288.00 0.00 4.38 -6.58
733.00 288.00 0.00 4.38 -6.58
734.00 288.00 0.00 4.38 -6.58
735.00 288.00 0.00 4.38 -6.58
736.00 288.00 0.00 4.38 -6.58
737.00 288.00 0.00 4.38 -6.58
738.00 288.00 0.00 4.38 -6.58
739.00 288.00 0.00 4.38 -6.58
740.00 288.00 0.00 4.38 -6.58
741.00 288.00 0.00 4.38 -6.58
742.00 288.00 0.00 4.38 -6.58
743.00 288.00 0.00 4.38 -6.58
744.00 288.00 0.00 4.38 -6.58
745.00 288.00 0.00 4.38 -6.58
746.00 288.00 0.00 4.38 -6.58
747.00 288.00 0.00 4.38 -6.58
748.00 288.00 0.00 4.38 -6.58
749.00 288.00 0.00 4.38 -6.58
750.00 288.00 0.00 4.38 -6.58
751.00 288.00 0.00 4.38 -6.58
752.00 288.00 0.00 4.38 -6.58
753.00 288.00 0.00 4.38 -6.58
754.00 288.00 0.00 4.38 -6.58
755.00 288.00 0.00 4.38 -6.58
756.00 288.00 0.00 4.38 -6.58
757.00 288.00 0.00 4.38 -6.58
758.00 288.00 0.00 4.38 -6.58
759.00 288.00 0.00 4.38 -6.58
760.00 288.00 0.00 4.38 -6.58
761.00 288.00 0.00 4.38 -6.58
762.00 288.00 0.00 4.38 -6.58
763.00 288.00 0.00 4.38 -6.58
764.00 288.00 0.00 4.38 -6.58
765.00 288.00 0.00 4.38 -6.58
766.00 288.00 0.00 4.38 -6.58
767.00 288.00 0.00 4.38 -6.58
768.00 288.00 0.00 4.38 -6.58
769.00 288.00 0.00 4.38 -6.58
770.00 288.00 0.00 4.38 -6.58
771.00 288.00 0.00 4.38 -6.58
772.00 288.00 0.00 4.38 -6.58
773.00 288.00 0.00 4.38 -6.58
774.00 288.00 0.00 4.38 -6.58
775.00 288.00 0.00 4.38 -6.58
776.00 288.00 0.00 4.38 -6.58
777.00 288.00 0.00 4.38 -6.58
778.00 288.00 0.00 4.38 -6.58
779.00 288.00 0.00 4.38 -6.58
780.00 288.00 0.00 4.38 -6.58
781.00 288.00 0.00 4.38 -6.58
782.00 288.00 0.00 4.38 -6.58
783.00 288.00 0.00 4.38 -6.58
784.00 288.00 0.00 4.38 -6.58
785.00 288.00 0.00 4.38 -6.58
786.00 288.00 0.00 4.38 -6.58
787.00 288.00 0.00 4.38 -6.58
788.00 288.00 0.00 4.38 -6.58
789.00 288.00 0.00 4.38 -6.58
790.00 288.00 0.00 4.38 -6.58
791.00 288.00 0.00 4.38 -6.58
792.00 288.00 0.00 4.38 -6.58
793.00 288.00 0.00 4.38 -6.58
794.00 288.00 0.00 4.38 -6.58
795.00 288.00 0.00 4.38 -6.58
796.00 288.00 0.00 4.38 -6.58
797.00 288.00 0.00 4.38 -6.58
798.00 288.00 0.00 4.38 -6.58
799.00 288.00 0.00 4.38 -6.58
800.00 288.00 0.00 4.38 -6.58
801.00 288.00 0.00 4.38 -6.58
802.00 288.00 0.00 4.38 -6.58
803.00 288.00 0.00 4.38 -6.58
804.00 288.00 0.00 4.38 -6.58
805.00 288.00 0.00 4.38 -6.58
806.00 288.00 0.00 4.38 -6.58
807.00 288.00 0.00 4.38 -6.58
808.00 288.00 0.00 4.38 -6.58
809.00 288.00 0.00 4.38 -6.58
810.00 288.00 0.00 4.38 -6.58
811.00 288.00 0.00 4.38 -6.58
812.00 288.00 0.00 4.38 -6.58
813.00 288.00 0.00 4.38 -6.58
814.00 288.00 0.00 4.38 -6.58
815.00 288.00 0.00 4.38 -6.58
816.00 288.00 0.00 4.38 -6.58
817.00 288.00 0.00 4.38 -6.58
818.00 288.00 0.00 4.38 -6.58
819.00 288.00 0.00 4.38 -6.58
820.00 288.00 0.00 4.38 -6.58
821.00 288.00 0.00 4.38 -6.58
822.00 288.00 0.00 4.38 -6.58
823.00 288.00 0.00 4.38 -6.58
824.00 288.00 0.00 4.38 -6.58
825.00 288.00 0.00 4.38 -6.58
826.00 288.00 0.00 4.38 -6.58
827.00 288.00 0.00 4.38 -6.58
828.00 288.00 0.00 4.38 -6.58
829.00 288.00 0.00 4.38 -6.58
830.00 288.00 0.00 4.38 -6.58
831.00 288.00 0.00 4.38 -6.58
