1000.00 288.00 00.00
0.00 288.00 0.00 0.79 -4.24
1.00 288.00 0.00 0.79 -4.24
2.00 288.00 0.00 0.79 -4.24
3.00 288.00 0.00 0.79 -4.24
4.00 288.00 0.00 0.79 -4.24
5.00 288.00 0.00 0.79 -4.24
6.00 288.00 0.00 0.79 -4.24
7.00 288.00 0.00 0.79 -4.24
8.00 288.00 0.00 0.79 -4.24
9.00 288.00 0.00 0.79 -4.24
10.00 288.00 0.00 0.79 -4.24
11.00 288.00 0.00 0.79 -4.24
12.00 288.00 0.00 0.79 -4.24
13.00 288.00 0.00 0.79 -4.24
14.00 288.00 0.00 0.79 -4.24
15.00 288.00 0.00 0.79 -4.24
16.00 288.00 0.00 0.79 -4.24
17.00 288.00 0.00 0.79 -4.24
18.00 288.00 0.00 0.79 -4.24
19.00 288.00 0.00 0.79 -4.24
20.00 288.00 0.00 0.79 -4.24
21.00 288.00 0.00 0.79 -4.24
22.00 288.00 0.00 0.79 -4.24
23.00 288.00 0.00 0.79 -4.24
24.00 288.00 0.00 0.79 -4.24
25.00 288.00 0.00 0.79 -4.24
26.00 288.00 0.00 0.79 -4.24
27.00 288.00 0.00 0.79 -4.24
28.00 288.00 0.00 0.79 -4.24
29.00 288.00 0.00 0.79 -4.24
30.00 288.00 0.00 0.79 -4.24
31.00 288.00 0.00 0.79 -4.24
32.00 288.00 0.00 0.79 -4.24
33.00 288.00 0.00 0.79 -4.24
34.00 288.00 0.00 0.79 -4.24
35.00 288.00 0.00 0.79 -4.24
36.00 288.00 0.00 0.79 -4.24
37.00 288.00 0.00 0.79 -4.24
38.00 288.00 0.00 0.79 -4.24
39.00 288.00 0.00 0.79 -4.24
40.00 288.00 0.00 0.79 -4.24
41.00 288.00 0.00 0.79 -4.24
42.00 288.00 0.00 0.79 -4.24
43.00 288.00 0.00 0.79 -4.24
44.00 288.00 0.00 0.79 -4.24
45.00 288.00 0.00 0.79 -4.24
46.00 288.00 0.00 0.79 -4.24
47.00 288.00 0.00 0.79 -4.24
48.00 288.00 0.00 0.79 -4.24
49.00 288.00 0.00 0.79 -4.24
50.00 288.00 0.00 0.79 -4.24
51.00 288.00 0.00 0.80 -4.23
52.00 288.00 0.00 0.80 -4.23
53.00 288.00 0.00 0.80 -4.23
54.00 288.00 0.00 0.80 -4.23
55.00 288.00 0.00 0.80 -4.23
56.00 288.00 0.00 0.81 -4.23
57.00 288.00 0.00 0.81 -4.23
58.00 288.00 0.00 0.81 -4.23
59.00 288.00 0.00 0.81 -4.22
60.00 288.00 0.00 0.82 -4.22
61.00 288.00 0.00 0.82 -4.22
62.00 288.00 0.00 0.82 -4.22
63.00 288.00 0.00 0.82 -4.22
64.00 288.00 0.00 0.83 -4.22
65.00 288.00 0.00 0.83 -4.21
66.00 288.00 0.00 0.83 -4.21
67.00 288.00 0.00 0.84 -4.21
68.00 288.00 0.00 0.84 -4.21
69.00 288.00 0.00 0.85 -4.20
70.00 288.00 0.00 0.85 -4.20
71.00 288.00 0.00 0.85 -4.20
72.00 288.00 0.00 0.86 -4.20
73.00 288.00 0.00 0.86 -4.19
74.00 288.00 0.00 0.87 -4.19
75.00 288.00 0.00 0.87 -4.19
76.00 288.00 0.00 0.88 -4.19
77.00 288.00 0.00 0.88 -4.18
78.00 288.00 0.00 0.89 -4.18
79.00 288.00 0.00 0.89 -4.18
80.00 288.00 0.00 0.90 -4.17
81.00 288.00 0.00 0.90 -4.17
82.00 288.00 0.00 0.91 -4.17
83.00 288.00 0.00 0.92 -4.16
84.00 288.00 0.00 0.92 -4.16
85.00 288.00 0.00 0.93 -4.16
86.00 288.00 0.00 0.93 -4.15
87.00 288.00 0.00 0.94 -4.15
88.00 288.00 0.00 0.95 -4.14
89.00 288.00 0.00 0.95 -4.14
90.00 288.00 0.00 0.96 -4.14
91.00 288.00 0.00 0.97 -4.13
92.00 288.00 0.00 0.97 -4.13
93.00 288.00 0.00 0.98 -4.12
94.00 288.00 0.00 0.99 -4.12
95.00 288.00 0.00 1.00 -4.11
96.00 288.00 0.00 1.00 -4.11
97.00 288.00 0.00 1.01 -4.10
98.00 288.00 0.00 1.02 -4.10
99.00 288.00 0.00 1.03 -4.09
100.00 288.00 0.00 1.04 -4.09
101.00 288.00 0.00 1.05 -4.08
102.00 288.00 0.00 1.05 -4.08
103.00 288.00 0.00 1.06 -4.07
104.00 288.00 0.00 1.07 -4.07
105.00 288.00 0.00 1.08 -4.06
106.00 288.00 0.00 1.09 -4.06
107.00 288.00 0.00 1.10 -4.05
108.00 288.00 0.00 1.11 -4.05
109.00 288.00 0.00 1.12 -4.04
110.00 288.00 0.00 1.13 -4.04
111.00 288.00 0.00 1.14 -4.03
112.00 288.00 0.00 1.15 -4.02
113.00 288.00 0.00 1.16 -4.02
114.00 288.00 0.00 1.17 -4.01
115.00 288.00 0.00 1.18 -4.01
116.00 288.00 0.00 1.19 -4.00
117.00 288.00 0.00 1.20 -3.99
118.00 288.00 0.00 1.21 -3.99
119.00 288.00 0.00 1.22 -3.98
120.00 288.00 0.00 1.23 -3.97
121.00 288.00 0.00 1.24 -3.97
122.00 288.00 0.00 1.25 -3.96
123.00 288.00 0.00 1.27 -3.95
124.00 288.00 0.00 1.28 -3.94
125.00 288.00 0.00 1.29 -3.94
126.00 288.00 0.00 1.30 -3.93
127.00 288.00 0.00 1.31 -3.92
128.00 288.00 0.00 1.32 -3.92
129.00 288.00 0.00 1.34 -3.91
130.00 288.00 0.00 1.35 -3.90
131.00 288.00 0.00 1.36 -3.89
132.00 288.00 0.00 1.37 -3.89
133.00 288.00 0.00 1.39 -3.88
134.00 288.00 0.00 1.40 -3.87
135.00 288.00 0.00 1.41 -3.86
136.00 288.00 0.00 1.43 -3.85
137.00 288.00 0.00 1.44 -3.84
138.00 288.00 0.00 1.45 -3.84
139.00 288.00 0.00 1.47 -3.83
140.00 288.00 0.00 1.48 -3.82
141.00 288.00 0.00 1.50 -3.81
142.00 288.00 0.00 1.51 -3.80
143.00 288.00 0.00 1.52 -3.79
144.00 288.00 0.00 1.54 -3.78
145.00 288.00 0.00 1.55 -3.78
146.00 288.00 0.00 1.57 -3.77
147.00 288.00 0.00 1.58 -3.76
148.00 288.00 0.00 1.60 -3.75
149.00 288.00 0.00 1.61 -3.74
150.00 288.00 0.00 1.63 -3.73
151.00 288.00 0.00 1.64 -3.72
152.00 288.00 0.00 1.66 -3.71
153.00 288.00 0.00 1.67 -3.70
154.00 288.00 0.00 1.69 -3.69
155.00 288.00 0.00 1.71 -3.68
156.00 288.00 0.00 1.72 -3.67
157.00 288.00 0.00 1.74 -3.66
158.00 288.00 0.00 1.75 -3.65
159.00 288.00 0.00 1.77 -3.64
160.00 288.00 0.00 1.79 -3.63
161.00 288.00 0.00 1.80 -3.62
162.00 288.00 0.00 1.82 -3.61
163.00 288.00 0.00 1.84 -3.60
164.00 288.00 0.00 1.85 -3.59
165.00 288.00 0.00 1.87 -3.58
166.00 288.00 0.00 1.89 -3.56
167.00 288.00 0.00 1.91 -3.55
168.00 288.00 0.00 1.92 -3.54
169.00 288.00 0.00 1.94 -3.53
170.00 288.00 0.00 1.96 -3.52
171.00 288.00 0.00 1.98 -3.51
172.00 288.00 0.00 2.00 -3.50
173.00 288.00 0.00 2.02 -3.48
174.00 288.00 0.00 2.03 -3.47
175.00 288.00 0.00 2.05 -3.46
176.00 288.00 0.00 2.07 -3.45
177.00 288.00 0.00 2.09 -3.44
178.00 288.00 0.00 2.11 -3.42
179.00 288.00 0.00 2.13 -3.41
180.00 288.00 0.00 2.15 -3.40
181.00 288.00 0.00 2.17 -3.39
182.00 288.00 0.00 2.19 -3.37
183.00 288.00 0.00 2.21 -3.36
184.00 288.00 0.00 2.23 -3.35
185.00 288.00 0.00 2.25 -3.34
186.00 288.00 0.00 2.27 -3.32
187.00 288.00 0.00 2.29 -3.31
188.00 288.00 0.00 2.31 -3.30
189.00 288.00 0.00 2.33 -3.28
190.00 288.00 0.00 2.35 -3.27
191.00 288.00 0.00 2.37 -3.26
192.00 288.00 0.00 2.39 -3.24
193.00 288.00 0.00 2.41 -3.23
194.00 288.00 0.00 2.43 -3.21
195.00 288.00 0.00 2.46 -3.20
196.00 288.00 0.00 2.48 -3.19
197.00 288.00 0.00 2.50 -3.17
198.00 288.00 0.00 2.52 -3.16
199.00 288.00 0.00 2.54 -3.14
200.00 288.00 0.00 2.57 -3.13
201.00 288.00 0.00 2.59 -3.11
202.00 288.00 0.00 2.61 -3.10
203.00 288.00 0.00 2.63 -3.08
204.00 288.00 0.00 2.66 -3.07
205.00 288.00 0.00 2.68 -3.05
206.00 288.00 0.00 2.70 -3.04
207.00 288.00 0.00 2.72 -3.02
208.00 288.00 0.00 2.75 -3.01
209.00 288.00 0.00 2.77 -2.99
210.00 288.00 0.00 2.79 -2.98
211.00 288.00 0.00 2.82 -2.96
212.00 288.00 0.00 2.84 -2.94
213.00 288.00 0.00 2.87 -2.93
214.00 288.00 0.00 2.89 -2.91
215.00 288.00 0.00 2.91 -2.90
216.00 288.00 0.00 2.94 -2.88
217.00 288.00 0.00 2.96 -2.86
218.00 288.00 0.00 2.99 -2.85
219.00 288.00 0.00 3.01 -2.83
220.00 288.00 0.00 3.04 -2.81
221.00 288.00 0.00 3.06 -2.80
222.00 288.00 0.00 3.09 -2.78
223.00 288.00 0.00 3.11 -2.76
224.00 288.00 0.00 3.14 -2.75
225.00 288.00 0.00 3.16 -2.73
226.00 288.00 0.00 3.19 -2.71
227.00 288.00 0.00 3.21 -2.70
228.00 288.00 0.00 3.24 -2.68
229.00 288.00 0.00 3.26 -2.66
230.00 288.00 0.00 3.29 -2.64
231.00 288.00 0.00 3.31 -2.63
232.00 288.00 0.00 3.34 -2.61
233.00 288.00 0.00 3.36 -2.59
234.00 288.00 0.00 3.39 -2.58
235.00 288.00 0.00 3.41 -2.56
236.00 288.00 0.00 3.44 -2.54
237.00 288.00 0.00 3.46 -2.53
238.00 288.00 0.00 3.49 -2.51
239.00 288.00 0.00 3.51 -2.49
240.00 288.00 0.00 3.54 -2.47
241.00 288.00 0.00 3.56 -2.46
242.00 288.00 0.00 3.59 -2.44
243.00 288.00 0.00 3.61 -2.42
244.00 288.00 0.00 3.64 -2.41
245.00 288.00 0.00 3.66 -2.39
246.00 288.00 0.00 3.69 -2.37
247.00 288.00 0.00 3.71 -2.35
248.00 288.00 0.00 3.74 -2.34
249.00 288.00 0.00 3.76 -2.32
250.00 288.00 0.00 3.79 -2.30
251.00 288.00 0.00 3.81 -2.28
252.00 288.00 0.00 3.84 -2.27
253.00 288.00 0.00 3.86 -2.25
254.00 288.00 0.00 3.89 -2.23
255.00 288.00 0.00 3.91 -2.22
256.00 288.00 0.00 3.94 -2.20
257.00 288.00 0.00 3.96 -2.18
258.00 288.00 0.00 3.99 -2.16
259.00 288.00 0.00 4.01 -2.15
260.00 288.00 0.00 4.04 -2.13
261.00 288.00 0.00 4.06 -2.11
262.00 288.00 0.00 4.09 -2.09
263.00 288.00 0.00 4.11 -2.08
264.00 288.00 0.00 4.14 -2.06
265.00 288.00 0.00 4.16 -2.04
266.00 288.00 0.00 4.19 -2.02
267.00 288.00 0.00 4.21 -2.01
268.00 288.00 0.00 4.24 -1.99
269.00 288.00 0.00 4.26 -1.97
270.00 288.00 0.00 4.29 -1.95
271.00 288.00 0.00 4.31 -1.94
272.00 288.00 0.00 4.34 -1.92
273.00 288.00 0.00 4.36 -1.90
274.00 288.00 0.00 4.39 -1.88
275.00 288.00 0.00 4.41 -1.86
276.00 288.00 0.00 4.44 -1.85
277.00 288.00 0.00 4.46 -1.83
278.00 288.00 0.00 4.49 -1.81
279.00 288.00 0.00 4.51 -1.79
280.00 288.00 0.00 4.54 -1.78
281.00 288.00 0.00 4.56 -1.76
282.00 288.00 0.00 4.59 -1.74
283.00 288.00 0.00 4.61 -1.72
284.00 288.00 0.00 4.64 -1.71
285.00 288.00 0.00 4.66 -1.69
286.00 288.00 0.00 4.69 -1.67
287.00 288.00 0.00 4.71 -1.65
288.00 288.00 0.00 4.74 -1.63
289.00 288.00 0.00 4.76 -1.62
290.00 288.00 0.00 4.79 -1.60
291.00 288.00 0.00 4.81 -1.58
292.00 288.00 0.00 4.84 -1.56
293.00 288.00 0.00 4.86 -1.54
294.00 288.00 0.00 4.89 -1.53
295.00 288.00 0.00 4.91 -1.51
296.00 288.00 0.00 4.94 -1.49
297.00 288.00 0.00 4.96 -1.47
298.00 288.00 0.00 4.99 -1.46
299.00 288.00 0.00 5.01 -1.44
300.00 288.00 0.00 5.04 -1.42
301.00 288.00 0.00 5.06 -1.40
302.00 288.00 0.00 5.09 -1.38
303.00 288.00 0.00 5.11 -1.37
304.00 288.00 0.00 5.14 -1.35
305.00 288.00 0.00 5.16 -1.33
306.00 288.00 0.00 5.19 -1.31
307.00 288.00 0.00 5.21 -1.29
308.00 288.00 0.00 5.24 -1.28
309.00 288.00 0.00 5.26 -1.26
310.00 288.00 0.00 5.29 -1.24
311.00 288.00 0.00 5.31 -1.22
312.00 288.00 0.00 5.34 -1.20
313.00 288.00 0.00 5.36 -1.19
314.00 288.00 0.00 5.39 -1.17
315.00 288.00 0.00 5.41 -1.15
316.00 288.00 0.00 5.44 -1.13
317.00 288.00 0.00 5.46 -1.11
318.00 288.00 0.00 5.49 -1.10
319.00 288.00 0.00 5.51 -1.08
320.00 288.00 0.00 5.54 -1.06
321.00 288.00 0.00 5.56 -1.04
322.00 288.00 0.00 5.59 -1.02
323.00 288.00 0.00 5.61 -1.00
324.00 288.00 0.00 5.64 -0.99
325.00 288.00 0.00 5.66 -0.97
326.00 288.00 0.00 5.69 -0.95
327.00 288.00 0.00 5.71 -0.93
328.00 288.00 0.00 5.74 -0.91
329.00 288.00 0.00 5.76 -0.90
330.00 288.00 0.00 5.79 -0.88
331.00 288.00 0.00 5.81 -0.86
332.00 288.00 0.00 5.84 -0.84
333.00 288.00 0.00 5.86 -0.82
334.00 288.00 0.00 5.89 -0.80
335.00 288.00 0.00 5.91 -0.79
336.00 288.00 0.00 5.94 -0.77
337.00 288.00 0.00 5.96 -0.75
338.00 288.00 0.00 5.99 -0.73
339.00 288.00 0.00 6.01 -0.71
340.00 288.00 0.00 6.04 -0.70
341.00 288.00 0.00 6.06 -0.68
342.00 288.00 0.00 6.09 -0.66
343.00 288.00 0.00 6.11 -0.64
344.00 288.00 0.00 6.14 -0.62
345.00 288.00 0.00 6.16 -0.60
346.00 288.00 0.00 6.19 -0.59
347.00 288.00 0.00 6.21 -0.57
348.00 288.00 0.00 6.24 -0.55
349.00 288.00 0.00 6.26 -0.53
350.00 288.00 0.00 6.29 -0.51
351.00 288.00 0.00 6.31 -0.49
352.00 288.00 0.00 6.34 -0.48
353.00 288.00 0.00 6.36 -0.46
354.00 288.00 0.00 6.39 -0.44
355.00 288.00 0.00 6.41 -0.42
356.00 288.00 0.00 6.44 -0.40
357.00 288.00 0.00 6.46 -0.38
358.00 288.00 0.00 6.49 -0.37
359.00 288.00 0.00 6.51 -0.35
360.00 288.00 0.00 6.54 -0.33
361.00 288.00 0.00 6.56 -0.31
362.00 288.00 0.00 6.59 -0.29
363.00 288.00 0.00 6.61 -0.27
364.00 288.00 0.00 6.64 -0.26
365.00 288.00 0.00 6.66 -0.24
366.00 288.00 0.00 6.69 -0.22
367.00 288.00 0.00 6.71 -0.20
368.00 288.00 0.00 6.74 -0.18
369.00 288.00 0.00 6.76 -0.16
370.00 288.00 0.00 6.79 -0.15
371.00 288.00 0.00 6.81 -0.13
372.00 288.00 0.00 6.84 -0.11
373.00 288.00 0.00 6.86 -0.09
374.00 288.00 0.00 6.89 -0.07
375.00 288.00 0.00 6.91 -0.05
376.00 288.00 0.00 6.94 -0.04
377.00 288.00 0.00 6.96 -0.02
378.00 288.00 0.00 6.99 0.00
379.00 288.00 0.00 7.01 0.02
380.00 288.00 0.00 7.04 0.04
381.00 288.00 0.00 7.06 0.05
382.00 288.00 0.00 7.09 0.07
383.00 288.00 0.00 7.11 0.09
384.00 288.00 0.00 7.14 0.11
385.00 288.00 0.00 7.16 0.13
386.00 288.00 0.00 7.19 0.15
387.00 288.00 0.00 7.21 0.16
388.00 288.00 0.00 7.24 0.18
389.00 288.00 0.00 7.26 0.20
390.00 288.00 0.00 7.29 0.22
391.00 288.00 0.00 7.31 0.24
392.00 288.00 0.00 7.34 0.26
393.00 288.00 0.00 7.36 0.27
394.00 288.00 0.00 7.39 0.29
395.00 288.00 0.00 7.41 0.31
396.00 288.00 0.00 7.44 0.33
397.00 288.00 0.00 7.46 0.35
398.00 288.00 0.00 7.49 0.37
399.00 288.00 0.00 7.51 0.38
400.00 288.00 0.00 7.54 0.40
401.00 288.00 0.00 7.56 0.42
402.00 288.00 0.00 7.59 0.44
403.00 288.00 0.00 7.61 0.46
404.00 288.00 0.00 7.64 0.48
405.00 288.00 0.00 7.66 0.49
406.00 288.00 0.00 7.69 0.51
407.00 288.00 0.00 7.71 0.53
408.00 288.00 0.00 7.74 0.55
409.00 288.00 0.00 7.76 0.57
410.00 288.00 0.00 7.79 0.59
411.00 288.00 0.00 7.81 0.60
412.00 288.00 0.00 7.84 0.62
413.00 288.00 0.00 7.86 0.64
414.00 288.00 0.00 7.89 0.66
415.00 288.00 0.00 7.91 0.68
416.00 288.00 0.00 7.94 0.70
417.00 288.00 0.00 7.96 0.71
418.00 288.00 0.00 7.99 0.73
419.00 288.00 0.00 8.01 0.75
420.00 288.00 0.00 8.04 0.77
421.00 288.00 0.00 8.06 0.79
422.00 288.00 0.00 8.09 0.80
423.00 288.00 0.00 8.11 0.82
424.00 288.00 0.00 8.14 0.84
425.00 288.00 0.00 8.16 0.86
426.00 288.00 0.00 8.19 0.88
427.00 288.00 0.00 8.21 0.90
428.00 288.00 0.00 8.24 0.91
429.00 288.00 0.00 8.26 0.93
430.00 288.00 0.00 8.29 0.95
431.00 288.00 0.00 8.31 0.97
432.00 288.00 0.00 8.34 0.99
433.00 288.00 0.00 8.36 1.00
434.00 288.00 0.00 8.39 1.02
435.00 288.00 0.00 8.41 1.04
436.00 288.00 0.00 8.44 1.06
437.00 288.00 0.00 8.46 1.08
438.00 288.00 0.00 8.49 1.10
439.00 288.00 0.00 8.51 1.11
440.00 288.00 0.00 8.54 1.13
441.00 288.00 0.00 8.56 1.15
442.00 288.00 0.00 8.59 1.17
443.00 288.00 0.00 8.61 1.19
444.00 288.00 0.00 8.64 1.20
445.00 288.00 0.00 8.66 1.22
446.00 288.00 0.00 8.69 1.24
447.00 288.00 0.00 8.71 1.26
448.00 288.00 0.00 8.74 1.28
449.00 288.00 0.00 8.76 1.29
450.00 288.00 0.00 8.79 1.31
451.00 288.00 0.00 8.81 1.33
452.00 288.00 0.00 8.84 1.35
453.00 288.00 0.00 8.86 1.37
454.00 288.00 0.00 8.89 1.38
455.00 288.00 0.00 8.91 1.40
456.00 288.00 0.00 8.94 1.42
457.00 288.00 0.00 8.96 1.44
458.00 288.00 0.00 8.99 1.46
459.00 288.00 0.00 9.01 1.47
460.00 288.00 0.00 9.04 1.49
461.00 288.00 0.00 9.06 1.51
462.00 288.00 0.00 9.09 1.53
463.00 288.00 0.00 9.11 1.54
464.00 288.00 0.00 9.14 1.56
465.00 288.00 0.00 9.16 1.58
466.00 288.00 0.00 9.19 1.60
467.00 288.00 0.00 9.21 1.62
468.00 288.00 0.00 9.24 1.63
469.00 288.00 0.00 9.26 1.65
470.00 288.00 0.00 9.29 1.67
471.00 288.00 0.00 9.31 1.69
472.00 288.00 0.00 9.34 1.71
473.00 288.00 0.00 9.36 1.72
474.00 288.00 0.00 9.39 1.74
475.00 288.00 0.00 9.41 1.76
476.00 288.00 0.00 9.44 1.78
477.00 288.00 0.00 9.46 1.79
478.00 288.00 0.00 9.49 1.81
479.00 288.00 0.00 9.51 1.83
480.00 288.00 0.00 9.54 1.85
481.00 288.00 0.00 9.56 1.86
482.00 288.00 0.00 9.59 1.88
483.00 288.00 0.00 9.61 1.90
484.00 288.00 0.00 9.64 1.92
485.00 288.00 0.00 9.66 1.94
486.00 288.00 0.00 9.69 1.95
487.00 288.00 0.00 9.71 1.97
488.00 288.00 0.00 9.74 1.99
489.00 288.00 0.00 9.76 2.01
490.00 288.00 0.00 9.79 2.02
491.00 288.00 0.00 9.81 2.04
492.00 288.00 0.00 9.84 2.06
493.00 288.00 0.00 9.86 2.08
494.00 288.00 0.00 9.89 2.09
495.00 288.00 0.00 9.91 2.11
496.00 288.00 0.00 9.94 2.13
497.00 288.00 0.00 9.96 2.15
498.00 288.00 0.00 9.99 2.16
499.00 288.00 0.00 10.01 2.18
500.00 288.00 0.00 10.04 2.20
501.00 288.00 0.00 10.06 2.22
502.00 288.00 0.00 10.09 2.23
503.00 288.00 0.00 10.11 2.25
504.00 288.00 0.00 10.14 2.27
505.00 288.00 0.00 10.16 2.28
506.00 288.00 0.00 10.19 2.30
507.00 288.00 0.00 10.21 2.32
508.00 288.00 0.00 10.24 2.34
509.00 288.00 0.00 10.26 2.35
510.00 288.00 0.00 10.29 2.37
511.00 288.00 0.00 10.31 2.39
512.00 288.00 0.00 10.34 2.41
513.00 288.00 0.00 10.36 2.42
514.00 288.00 0.00 10.39 2.44
515.00 288.00 0.00 10.41 2.46
516.00 288.00 0.00 10.44 2.47
517.00 288.00 0.00 10.46 2.49
518.00 288.00 0.00 10.49 2.51
519.00 288.00 0.00 10.51 2.53
520.00 288.00 0.00 10.54 2.54
521.00 288.00 0.00 10.56 2.56
522.00 288.00 0.00 10.59 2.58
523.00 288.00 0.00 10.61 2.59
524.00 288.00 0.00 10.64 2.61
525.00 288.00 0.00 10.66 2.63
526.00 288.00 0.00 10.69 2.64
527.00 288.00 0.00 10.71 2.66
528.00 288.00 0.00 10.74 2.68
529.00 288.00 0.00 10.76 2.70
530.00 288.00 0.00 10.79 2.71
531.00 288.00 0.00 10.81 2.73
532.00 288.00 0.00 10.84 2.75
533.00 288.00 0.00 10.86 2.76
534.00 288.00 0.00 10.89 2.78
535.00 288.00 0.00 10.91 2.80
536.00 288.00 0.00 10.94 2.81
537.00 288.00 0.00 10.96 2.83
538.00 288.00 0.00 10.99 2.85
539.00 288.00 0.00 11.01 2.86
540.00 288.00 0.00 11.04 2.88
541.00 288.00 0.00 11.06 2.90
542.00 288.00 0.00 11.09 2.91
543.00 288.00 0.00 11.11 2.93
544.00 288.00 0.00 11.13 2.94
545.00 288.00 0.00 11.16 2.96
546.00 288.00 0.00 11.18 2.98
547.00 288.00 0.00 11.21 2.99
548.00 288.00 0.00 11.23 3.01
549.00 288.00 0.00 11.25 3.02
550.00 288.00 0.00 11.28 3.04
551.00 288.00 0.00 11.30 3.05
552.00 288.00 0.00 11.32 3.07
553.00 288.00 0.00 11.34 3.08
554.00 288.00 0.00 11.37 3.10
555.00 288.00 0.00 11.39 3.11
556.00 288.00 0.00 11.41 3.13
557.00 288.00 0.00 11.43 3.14
558.00 288.00 0.00 11.46 3.16
559.00 288.00 0.00 11.48 3.17
560.00 288.00 0.00 11.50 3.19
561.00 288.00 0.00 11.52 3.20
562.00 288.00 0.00 11.54 3.21
563.00 288.00 0.00 11.57 3.23
564.00 288.00 0.00 11.59 3.24
565.00 288.00 0.00 11.61 3.26
566.00 288.00 0.00 11.63 3.27
567.00 288.00 0.00 11.65 3.28
568.00 288.00 0.00 11.67 3.30
569.00 288.00 0.00 11.69 3.31
570.00 288.00 0.00 11.71 3.32
571.00 288.00 0.00 11.73 3.34
572.00 288.00 0.00 11.75 3.35
573.00 288.00 0.00 11.77 3.36
574.00 288.00 0.00 11.79 3.37
575.00 288.00 0.00 11.81 3.39
576.00 288.00 0.00 11.83 3.40
577.00 288.00 0.00 11.85 3.41
578.00 288.00 0.00 11.87 3.42
579.00 288.00 0.00 11.89 3.44
580.00 288.00 0.00 11.91 3.45
581.00 288.00 0.00 11.93 3.46
582.00 288.00 0.00 11.95 3.47
583.00 288.00 0.00 11.97 3.48
584.00 288.00 0.00 11.98 3.50
585.00 288.00 0.00 12.00 3.51
586.00 288.00 0.00 12.02 3.52
587.00 288.00 0.00 12.04 3.53
588.00 288.00 0.00 12.06 3.54
589.00 288.00 0.00 12.08 3.55
590.00 288.00 0.00 12.09 3.56
591.00 288.00 0.00 12.11 3.58
592.00 288.00 0.00 12.13 3.59
593.00 288.00 0.00 12.15 3.60
594.00 288.00 0.00 12.16 3.61
595.00 288.00 0.00 12.18 3.62
596.00 288.00 0.00 12.20 3.63
597.00 288.00 0.00 12.21 3.64
598.00 288.00 0.00 12.23 3.65
599.00 288.00 0.00 12.25 3.66
600.00 288.00 0.00 12.26 3.67
601.00 288.00 0.00 12.28 3.68
602.00 288.00 0.00 12.29 3.69
603.00 288.00 0.00 12.31 3.70
604.00 288.00 0.00 12.33 3.71
605.00 288.00 0.00 12.34 3.72
606.00 288.00 0.00 12.36 3.73
607.00 288.00 0.00 12.37 3.74
608.00 288.00 0.00 12.39 3.75
609.00 288.00 0.00 12.40 3.76
610.00 288.00 0.00 12.42 3.77
611.00 288.00 0.00 12.43 3.78
612.00 288.00 0.00 12.45 3.78
613.00 288.00 0.00 12.46 3.79
614.00 288.00 0.00 12.48 3.80
615.00 288.00 0.00 12.49 3.81
616.00 288.00 0.00 12.50 3.82
617.00 288.00 0.00 12.52 3.83
618.00 288.00 0.00 12.53 3.84
619.00 288.00 0.00 12.55 3.84
620.00 288.00 0.00 12.56 3.85
621.00 288.00 0.00 12.57 3.86
622.00 288.00 0.00 12.59 3.87
623.00 288.00 0.00 12.60 3.88
624.00 288.00 0.00 12.61 3.89
625.00 288.00 0.00 12.63 3.89
626.00 288.00 0.00 12.64 3.90
627.00 288.00 0.00 12.65 3.91
628.00 288.00 0.00 12.66 3.92
629.00 288.00 0.00 12.68 3.92
630.00 288.00 0.00 12.69 3.93
631.00 288.00 0.00 12.70 3.94
632.00 288.00 0.00 12.71 3.94
633.00 288.00 0.00 12.72 3.95
634.00 288.00 0.00 12.73 3.96
635.00 288.00 0.00 12.75 3.97
636.00 288.00 0.00 12.76 3.97
637.00 288.00 0.00 12.77 3.98
638.00 288.00 0.00 12.78 3.99
639.00 288.00 0.00 12.79 3.99
640.00 288.00 0.00 12.80 4.00
641.00 288.00 0.00 12.81 4.01
642.00 288.00 0.00 12.82 4.01
643.00 288.00 0.00 12.83 4.02
644.00 288.00 0.00 12.84 4.02
645.00 288.00 0.00 12.85 4.03
646.00 288.00 0.00 12.86 4.04
647.00 288.00 0.00 12.87 4.04
648.00 288.00 0.00 12.88 4.05
649.00 288.00 0.00 12.89 4.05
650.00 288.00 0.00 12.90 4.06
651.00 288.00 0.00 12.91 4.06
652.00 288.00 0.00 12.92 4.07
653.00 288.00 0.00 12.93 4.07
654.00 288.00 0.00 12.94 4.08
655.00 288.00 0.00 12.95 4.08
656.00 288.00 0.00 12.95 4.09
657.00 288.00 0.00 12.96 4.09
658.00 288.00 0.00 12.97 4.10
659.00 288.00 0.00 12.98 4.10
660.00 288.00 0.00 12.99 4.11
661.00 288.00 0.00 13.00 4.11
662.00 288.00 0.00 13.00 4.12
663.00 288.00 0.00 13.01 4.12
664.00 288.00 0.00 13.02 4.13
665.00 288.00 0.00 13.03 4.13
666.00 288.00 0.00 13.03 4.14
667.00 288.00 0.00 13.04 4.14
668.00 288.00 0.00 13.05 4.14
669.00 288.00 0.00 13.05 4.15
670.00 288.00 0.00 13.06 4.15
671.00 288.00 0.00 13.07 4.16
672.00 288.00 0.00 13.07 4.16
673.00 288.00 0.00 13.08 4.16
674.00 288.00 0.00 13.08 4.17
675.00 288.00 0.00 13.09 4.17
676.00 288.00 0.00 13.10 4.17
677.00 288.00 0.00 13.10 4.18
678.00 288.00 0.00 13.11 4.18
679.00 288.00 0.00 13.11 4.18
680.00 288.00 0.00 13.12 4.19
681.00 288.00 0.00 13.12 4.19
682.00 288.00 0.00 13.13 4.19
683.00 288.00 0.00 13.13 4.19
684.00 288.00 0.00 13.14 4.20
685.00 288.00 0.00 13.14 4.20
686.00 288.00 0.00 13.15 4.20
687.00 288.00 0.00 13.15 4.20
688.00 288.00 0.00 13.15 4.21
689.00 288.00 0.00 13.16 4.21
690.00 288.00 0.00 13.16 4.21
691.00 288.00 0.00 13.17 4.21
692.00 288.00 0.00 13.17 4.22
693.00 288.00 0.00 13.17 4.22
694.00 288.00 0.00 13.18 4.22
695.00 288.00 0.00 13.18 4.22
696.00 288.00 0.00 13.18 4.22
697.00 288.00 0.00 13.18 4.22
698.00 288.00 0.00 13.19 4.23
699.00 288.00 0.00 13.19 4.23
700.00 288.00 0.00 13.19 4.23
701.00 288.00 0.00 13.19 4.23
702.00 288.00 0.00 13.20 4.23
703.00 288.00 0.00 13.20 4.23
704.00 288.00 0.00 13.20 4.23
705.00 288.00 0.00 13.20 4.23
706.00 288.00 0.00 13.20 4.24
707.00 288.00 0.00 13.21 4.24
708.00 288.00 0.00 13.21 4.24
709.00 288.00 0.00 13.21 4.24
710.00 288.00 0.00 13.21 4.24
711.00 288.00 0.00 13.21 4.24
712.00 288.00 0.00 13.21 4.24
713.00 288.00 0.00 13.21 4.24
714.00 288.00 0.00 13.21 4.24
715.00 288.00 0.00 13.21 4.24
716.00 288.00 0.00 13.21 4.24
717.00 288.00 0.00 13.21 4.24
718.00 288.00 0.00 13.21 4.24
719.00 288.00 0.00 13.21 4.24
720.00 288.00 0.00 13.21 4.24
721.00 288.00 0.00 13.21 4.24
722.00 288.00 0.00 13.21 4.24
723.00 288.00 0.00 13.21 4.24
724.00 288.00 0.00 13.21 4.24
725.00 288.00 0.00 13.21 4.24
726.00 288.00 0.00 13.21 4.24
727.00 288.00 0.00 13.21 4.24
728.00 288.00 0.00 13.21 4.24
729.00 288.00 0.00 13.21 4.24
730.00 288.00 0.00 13.21 4.24
731.00 288.00 0.00 13.21 4.24
732.00 288.00 0.00 13.21 4.24
733.00 288.00 0.00 13.21 4.24
734.00 288.00 0.00 13.21 4.24
735.00 288.00 0.00 13.21 4.24
736.00 288.00 0.00 13.21 4.24
737.00 288.00 0.00 13.21 4.24
738.00 288.00 0.00 13.21 4.24
739.00 288.00 0.00 13.21 4.24
740.00 288.00 0.00 13.21 4.24
741.00 288.00 0.00 13.21 4.24
742.00 288.00 0.00 13.21 4.24
743.00 288.00 0.00 13.21 4.24
744.00 288.00 0.00 13.21 4.24
745.00 288.00 0.00 13.21 4.24
746.00 288.00 0.00 13.21 4.24
747.00 288.00 0.00 13.21 4.24
748.00 288.00 0.00 13.21 4.24
749.00 288.00 0.00 13.21 4.24
750.00 288.00 0.00 13.21 4.24
751.00 288.00 0.00 13.21 4.24
752.00 288.00 0.00 13.21 4.24
753.00 288.00 0.00 13.21 4.24
754.00 288.00 0.00 13.21 4.24
755.00 288.00 0.00 13.21 4.24
756.00 288.00 0.00 13.21 4.24
757.00 288.00 0.00 13.21 4.24
758.00 288.00 0.00 13.21 4.24
759.00 288.00 0.00 13.21 4.24
760.00 288.00 0.00 13.21 4.24
761.00 288.00 0.00 13.21 4.24
762.00 288.00 0.00 13.21 4.24
763.00 288.00 0.00 13.21 4.24
764.00 288.00 0.00 13.21 4.24
765.00 288.00 0.00 13.21 4.24
766.00 288.00 0.00 13.21 4.24
767.00 288.00 0.00 13.21 4.24
768.00 288.00 0.00 13.21 4.24
769.00 288.00 0.00 13.21 4.24
770.00 288.00 0.00 13.21 4.24
771.00 288.00 0.00 13.21 4.24
772.00 288.00 0.00 13.21 4.24
773.00 288.00 0.00 13.21 4.24
774.00 288.00 0.00 13.21 4.24
775.00 288.00 0.00 13.21 4.24
776.00 288.00 0.00 13.21 4.24
777.00 288.00 0.00 13.21 4.24
778.00 288.00 0.00 13.21 4.24
779.00 288.00 0.00 13.21 4.24
780.00 288.00 0.00 13.21 4.24
781.00 288.00 0.00 13.21 4.24
782.00 288.00 0.00 13.21 4.24
783.00 288.00 0.00 13.21 4.24
784.00 288.00 0.00 13.21 4.24
785.00 288.00 0.00 13.21 4.24
786.00 288.00 0.00 13.21 4.24
787.00 288.00 0.00 13.21 4.24
788.00 288.00 0.00 13.21 4.24
789.00 288.00 0.00 13.21 4.24
790.00 288.00 0.00 13.21 4.24
791.00 288.00 0.00 13.21 4.24
792.00 288.00 0.00 13.21 4.24
793.00 288.00 0.00 13.21 4.24
794.00 288.00 0.00 13.21 4.24
795.00 288.00 0.00 13.21 4.24
796.00 288.00 0.00 13.21 4.24
797.00 288.00 0.00 13.21 4.24
798.00 288.00 0.00 13.21 4.24
799.00 288.00 0.00 13.21 4.24
800.00 288.00 0.00 13.21 4.24
801.00 288.00 0.00 13.21 4.24
802.00 288.00 0.00 13.21 4.24
803.00 288.00 0.00 13.21 4.24
804.00 288.00 0.00 13.21 4.24
805.00 288.00 0.00 13.21 4.24
806.00 288.00 0.00 13.21 4.24
807.00 288.00 0.00 13.21 4.24
808.00 288.00 0.00 13.21 4.24
809.00 288.00 0.00 13.21 4.24
810.00 288.00 0.00 13.21 4.24
811.00 288.00 0.00 13.21 4.24
812.00 288.00 0.00 13.21 4.24
813.00 288.00 0.00 13.21 4.24
814.00 288.00 0.00 13.21 4.24
815.00 288.00 0.00 13.21 4.24
816.00 288.00 0.00 13.21 4.24
817.00 288.00 0.00 13.21 4.24
818.00 288.00 0.00 13.21 4.24
819.00 288.00 0.00 13.21 4.24
820.00 288.00 0.00 13.21 4.24
821.00 288.00 0.00 13.21 4.24
822.00 288.00 0.00 13.21 4.24
823.00 288.00 0.00 13.21 4.24
824.00 288.00 0.00 13.21 4.24
825.00 288.00 0.00 13.21 4.24
826.00 288.00 0.00 13.21 4.24
827.00 288.00 0.00 13.21 4.24
828.00 288.00 0.00 13.21 4.24
829.00 288.00 0.00 13.21 4.24
830.00 288.00 0.00 13.21 4.24
831.00 288.00 0.00 13.21 4.24
