1000.00 288.00 00.00
0.00 288.00 0.00 0.65 4.72
1.00 288.00 0.00 0.65 4.72
2.00 288.00 0.00 0.65 4.72
3.00 288.00 0.00 0.65 4.72
4.00 288.00 0.00 0.65 4.72
5.00 288.00 0.00 0.65 4.72
6.00 288.00 0.00 0.65 4.72
7.00 288.00 0.00 0.65 4.72
8.00 288.00 0.00 0.65 4.72
9.00 288.00 0.00 0.65 4.72
10.00 288.00 0.00 0.65 4.72
11.00 288.00 0.00 0.65 4.72
12.00 288.00 0.00 0.65 4.72
13.00 288.00 0.00 0.65 4.72
14.00 288.00 0.00 0.65 4.72
15.00 288.00 0.00 0.65 4.72
16.00 288.00 0.00 0.65 4.72
17.00 288.00 0.00 0.65 4.72
18.00 288.00 0.00 0.65 4.72
19.00 288.00 0.00 0.65 4.72
20.00 288.00 0.00 0.65 4.72
21.00 288.00 0.00 0.65 4.72
22.00 288.00 0.00 0.65 4.72
23.00 288.00 0.00 0.65 4.72
24.00 288.00 0.00 0.65 4.72
25.00 288.00 0.00 0.65 4.72
26.00 288.00 0.00 0.65 4.72
27.00 288.00 0.00 0.65 4.72
28.00 288.00 0.00 0.65 4.72
29.00 288.00 0.00 0.65 4.72
30.00 288.00 0.00 0.65 4.72
31.00 288.00 0.00 0.65 4.72
32.00 288.00 0.00 0.65 4.72
33.00 288.00 0.00 0.65 4.72
34.00 288.00 0.00 0.65 4.72
35.00 288.00 0.00 0.65 4.72
36.00 288.00 0.00 0.65 4.72
37.00 288.00 0.00 0.65 4.72
38.00 288.00 0.00 0.65 4.72
39.00 288.00 0.00 0.65 4.72
40.00 288.00 0.00 0.65 4.72
41.00 288.00 0.00 0.65 4.72
42.00 288.00 0.00 0.65 4.72
43.00 288.00 0.00 0.65 4.72
44.00 288.00 0.00 0.65 4.72
45.00 288.00 0.00 0.65 4.72
46.00 288.00 0.00 0.65 4.72
47.00 288.00 0.00 0.65 4.72
48.00 288.00 0.00 0.65 4.72
49.00 288.00 0.00 0.65 4.72
50.00 288.00 0.00 0.65 4.72
51.00 288.00 0.00 0.65 4.72
52.00 288.00 0.00 0.65 4.72
53.00 288.00 0.00 0.65 4.72
54.00 288.00 0.00 0.65 4.72
55.00 288.00 0.00 0.65 4.72
56.00 288.00 0.00 0.65 4.72
57.00 288.00 0.00 0.65 4.72
58.00 288.00 0.00 0.65 4.72
59.00 288.00 0.00 0.65 4.72
60.00 288.00 0.00 0.65 4.72
61.00 288.00 0.00 0.65 4.72
62.00 288.00 0.00 0.65 4.72
63.00 288.00 0.00 0.65 4.72
64.00 288.00 0.00 0.65 4.72
65.00 288.00 0.00 0.65 4.72
66.00 288.00 0.00 0.65 4.72
67.00 288.00 0.00 0.65 4.72
68.00 288.00 0.00 0.65 4.72
69.00 288.00 0.00 0.65 4.72
70.00 288.00 0.00 0.65 4.72
71.00 288.00 0.00 0.65 4.72
72.00 288.00 0.00 0.65 4.72
73.00 288.00 0.00 0.65 4.72
74.00 288.00 0.00 0.65 4.72
75.00 288.00 0.00 0.65 4.72
76.00 288.00 0.00 0.65 4.72
77.00 288.00 0.00 0.65 4.72
78.00 288.00 0.00 0.65 4.72
79.00 288.00 0.00 0.65 4.72
80.00 288.00 0.00 0.65 4.71
81.00 288.00 0.00 0.65 4.71
82.00 288.00 0.00 0.65 4.71
83.00 288.00 0.00 0.65 4.71
84.00 288.00 0.00 0.65 4.71
85.00 288.00 0.00 0.65 4.71
86.00 288.00 0.00 0.65 4.71
87.00 288.00 0.00 0.66 4.71
88.00 288.00 0.00 0.66 4.71
89.00 288.00 0.00 0.66 4.71
90.00 288.00 0.00 0.66 4.71
91.00 288.00 0.00 0.66 4.70
92.00 288.00 0.00 0.67 4.70
93.00 288.00 0.00 0.67 4.70
94.00 288.00 0.00 0.67 4.70
95.00 288.00 0.00 0.68 4.70
96.00 288.00 0.00 0.68 4.70
97.00 288.00 0.00 0.68 4.69
98.00 288.00 0.00 0.69 4.69
99.00 288.00 0.00 0.69 4.69
100.00 288.00 0.00 0.69 4.69
101.00 288.00 0.00 0.70 4.68
102.00 288.00 0.00 0.70 4.68
103.00 288.00 0.00 0.70 4.68
104.00 288.00 0.00 0.71 4.68
105.00 288.00 0.00 0.71 4.67
106.00 288.00 0.00 0.72 4.67
107.00 288.00 0.00 0.72 4.67
108.00 288.00 0.00 0.73 4.66
109.00 288.00 0.00 0.73 4.66
110.00 288.00 0.00 0.74 4.66
111.00 288.00 0.00 0.75 4.65
112.00 288.00 0.00 0.75 4.65
113.00 288.00 0.00 0.76 4.65
114.00 288.00 0.00 0.76 4.64
115.00 288.00 0.00 0.77 4.64
116.00 288.00 0.00 0.78 4.64
117.00 288.00 0.00 0.78 4.63
118.00 288.00 0.00 0.79 4.63
119.00 288.00 0.00 0.80 4.62
120.00 288.00 0.00 0.80 4.62
121.00 288.00 0.00 0.81 4.61
122.00 288.00 0.00 0.82 4.61
123.00 288.00 0.00 0.83 4.61
124.00 288.00 0.00 0.83 4.60
125.00 288.00 0.00 0.84 4.60
126.00 288.00 0.00 0.85 4.59
127.00 288.00 0.00 0.86 4.59
128.00 288.00 0.00 0.87 4.58
129.00 288.00 0.00 0.87 4.57
130.00 288.00 0.00 0.88 4.57
131.00 288.00 0.00 0.89 4.56
132.00 288.00 0.00 0.90 4.56
133.00 288.00 0.00 0.91 4.55
134.00 288.00 0.00 0.92 4.55
135.00 288.00 0.00 0.93 4.54
136.00 288.00 0.00 0.94 4.53
137.00 288.00 0.00 0.95 4.53
138.00 288.00 0.00 0.96 4.52
139.00 288.00 0.00 0.97 4.51
140.00 288.00 0.00 0.98 4.51
141.00 288.00 0.00 0.99 4.50
142.00 288.00 0.00 1.00 4.49
143.00 288.00 0.00 1.01 4.49
144.00 288.00 0.00 1.02 4.48
145.00 288.00 0.00 1.04 4.47
146.00 288.00 0.00 1.05 4.47
147.00 288.00 0.00 1.06 4.46
148.00 288.00 0.00 1.07 4.45
149.00 288.00 0.00 1.08 4.44
150.00 288.00 0.00 1.09 4.44
151.00 288.00 0.00 1.11 4.43
152.00 288.00 0.00 1.12 4.42
153.00 288.00 0.00 1.13 4.41
154.00 288.00 0.00 1.14 4.40
155.00 288.00 0.00 1.16 4.40
156.00 288.00 0.00 1.17 4.39
157.00 288.00 0.00 1.18 4.38
158.00 288.00 0.00 1.20 4.37
159.00 288.00 0.00 1.21 4.36
160.00 288.00 0.00 1.22 4.35
161.00 288.00 0.00 1.24 4.34
162.00 288.00 0.00 1.25 4.34
163.00 288.00 0.00 1.27 4.33
164.00 288.00 0.00 1.28 4.32
165.00 288.00 0.00 1.30 4.31
166.00 288.00 0.00 1.31 4.30
167.00 288.00 0.00 1.33 4.29
168.00 288.00 0.00 1.34 4.28
169.00 288.00 0.00 1.36 4.27
170.00 288.00 0.00 1.37 4.26
171.00 288.00 0.00 1.39 4.25
172.00 288.00 0.00 1.40 4.24
173.00 288.00 0.00 1.42 4.23
174.00 288.00 0.00 1.44 4.22
175.00 288.00 0.00 1.45 4.21
176.00 288.00 0.00 1.47 4.20
177.00 288.00 0.00 1.48 4.18
178.00 288.00 0.00 1.50 4.17
179.00 288.00 0.00 1.52 4.16
180.00 288.00 0.00 1.54 4.15
181.00 288.00 0.00 1.55 4.14
182.00 288.00 0.00 1.57 4.13
183.00 288.00 0.00 1.59 4.12
184.00 288.00 0.00 1.61 4.10
185.00 288.00 0.00 1.62 4.09
186.00 288.00 0.00 1.64 4.08
187.00 288.00 0.00 1.66 4.07
188.00 288.00 0.00 1.68 4.06
189.00 288.00 0.00 1.70 4.04
190.00 288.00 0.00 1.72 4.03
191.00 288.00 0.00 1.73 4.02
192.00 288.00 0.00 1.75 4.01
193.00 288.00 0.00 1.77 3.99
194.00 288.00 0.00 1.79 3.98
195.00 288.00 0.00 1.81 3.97
196.00 288.00 0.00 1.83 3.95
197.00 288.00 0.00 1.85 3.94
198.00 288.00 0.00 1.87 3.93
199.00 288.00 0.00 1.89 3.91
200.00 288.00 0.00 1.91 3.90
201.00 288.00 0.00 1.93 3.88
202.00 288.00 0.00 1.95 3.87
203.00 288.00 0.00 1.98 3.86
204.00 288.00 0.00 2.00 3.84
205.00 288.00 0.00 2.02 3.83
206.00 288.00 0.00 2.04 3.81
207.00 288.00 0.00 2.06 3.80
208.00 288.00 0.00 2.08 3.78
209.00 288.00 0.00 2.10 3.77
210.00 288.00 0.00 2.13 3.75
211.00 288.00 0.00 2.15 3.74
212.00 288.00 0.00 2.17 3.72
213.00 288.00 0.00 2.19 3.71
214.00 288.00 0.00 2.22 3.69
215.00 288.00 0.00 2.24 3.67
216.00 288.00 0.00 2.26 3.66
217.00 288.00 0.00 2.29 3.64
218.00 288.00 0.00 2.31 3.63
219.00 288.00 0.00 2.33 3.61
220.00 288.00 0.00 2.36 3.59
221.00 288.00 0.00 2.38 3.57
222.00 288.00 0.00 2.41 3.56
223.00 288.00 0.00 2.43 3.54
224.00 288.00 0.00 2.45 3.52
225.00 288.00 0.00 2.48 3.51
226.00 288.00 0.00 2.50 3.49
227.00 288.00 0.00 2.53 3.47
228.00 288.00 0.00 2.55 3.45
229.00 288.00 0.00 2.58 3.44
230.00 288.00 0.00 2.60 3.42
231.00 288.00 0.00 2.63 3.40
232.00 288.00 0.00 2.66 3.38
233.00 288.00 0.00 2.68 3.36
234.00 288.00 0.00 2.71 3.34
235.00 288.00 0.00 2.73 3.32
236.00 288.00 0.00 2.76 3.30
237.00 288.00 0.00 2.79 3.29
238.00 288.00 0.00 2.81 3.27
239.00 288.00 0.00 2.84 3.25
240.00 288.00 0.00 2.87 3.23
241.00 288.00 0.00 2.90 3.21
242.00 288.00 0.00 2.92 3.19
243.00 288.00 0.00 2.95 3.17
244.00 288.00 0.00 2.98 3.15
245.00 288.00 0.00 3.01 3.13
246.00 288.00 0.00 3.03 3.11
247.00 288.00 0.00 3.06 3.09
248.00 288.00 0.00 3.09 3.06
249.00 288.00 0.00 3.12 3.04
250.00 288.00 0.00 3.15 3.02
251.00 288.00 0.00 3.18 3.00
252.00 288.00 0.00 3.21 2.98
253.00 288.00 0.00 3.24 2.96
254.00 288.00 0.00 3.27 2.94
255.00 288.00 0.00 3.30 2.91
256.00 288.00 0.00 3.33 2.89
257.00 288.00 0.00 3.36 2.87
258.00 288.00 0.00 3.39 2.85
259.00 288.00 0.00 3.42 2.82
260.00 288.00 0.00 3.45 2.80
261.00 288.00 0.00 3.48 2.78
262.00 288.00 0.00 3.51 2.76
263.00 288.00 0.00 3.54 2.74
264.00 288.00 0.00 3.56 2.71
265.00 288.00 0.00 3.59 2.69
266.00 288.00 0.00 3.63 2.67
267.00 288.00 0.00 3.66 2.64
268.00 288.00 0.00 3.69 2.62
269.00 288.00 0.00 3.72 2.60
270.00 288.00 0.00 3.75 2.58
271.00 288.00 0.00 3.78 2.55
272.00 288.00 0.00 3.81 2.53
273.00 288.00 0.00 3.83 2.51
274.00 288.00 0.00 3.87 2.49
275.00 288.00 0.00 3.90 2.46
276.00 288.00 0.00 3.92 2.44
277.00 288.00 0.00 3.96 2.42
278.00 288.00 0.00 3.99 2.39
279.00 288.00 0.00 4.02 2.37
280.00 288.00 0.00 4.04 2.35
281.00 288.00 0.00 4.08 2.33
282.00 288.00 0.00 4.11 2.30
283.00 288.00 0.00 4.14 2.28
284.00 288.00 0.00 4.17 2.26
285.00 288.00 0.00 4.20 2.23
286.00 288.00 0.00 4.23 2.21
287.00 288.00 0.00 4.26 2.19
288.00 288.00 0.00 4.29 2.16
289.00 288.00 0.00 4.32 2.14
290.00 288.00 0.00 4.35 2.12
291.00 288.00 0.00 4.38 2.09
292.00 288.00 0.00 4.41 2.07
293.00 288.00 0.00 4.44 2.05
294.00 288.00 0.00 4.47 2.02
295.00 288.00 0.00 4.50 2.00
296.00 288.00 0.00 4.53 1.98
297.00 288.00 0.00 4.55 1.95
298.00 288.00 0.00 4.59 1.93
299.00 288.00 0.00 4.62 1.91
300.00 288.00 0.00 4.65 1.88
301.00 288.00 0.00 4.68 1.86
302.00 288.00 0.00 4.71 1.84
303.00 288.00 0.00 4.74 1.81
304.00 288.00 0.00 4.77 1.79
305.00 288.00 0.00 4.80 1.76
306.00 288.00 0.00 4.83 1.74
307.00 288.00 0.00 4.86 1.72
308.00 288.00 0.00 4.89 1.69
309.00 288.00 0.00 4.92 1.67
310.00 288.00 0.00 4.95 1.65
311.00 288.00 0.00 4.98 1.62
312.00 288.00 0.00 5.01 1.60
313.00 288.00 0.00 5.04 1.57
314.00 288.00 0.00 5.07 1.55
315.00 288.00 0.00 5.10 1.53
316.00 288.00 0.00 5.12 1.50
317.00 288.00 0.00 5.16 1.48
318.00 288.00 0.00 5.19 1.46
319.00 288.00 0.00 5.22 1.43
320.00 288.00 0.00 5.25 1.41
321.00 288.00 0.00 5.28 1.38
322.00 288.00 0.00 5.31 1.36
323.00 288.00 0.00 5.34 1.34
324.00 288.00 0.00 5.37 1.31
325.00 288.00 0.00 5.40 1.29
326.00 288.00 0.00 5.43 1.26
327.00 288.00 0.00 5.46 1.24
328.00 288.00 0.00 5.49 1.22
329.00 288.00 0.00 5.52 1.19
330.00 288.00 0.00 5.55 1.17
331.00 288.00 0.00 5.58 1.14
332.00 288.00 0.00 5.61 1.12
333.00 288.00 0.00 5.64 1.10
334.00 288.00 0.00 5.67 1.07
335.00 288.00 0.00 5.70 1.05
336.00 288.00 0.00 5.73 1.02
337.00 288.00 0.00 5.76 1.00
338.00 288.00 0.00 5.79 0.97
339.00 288.00 0.00 5.82 0.95
340.00 288.00 0.00 5.85 0.93
341.00 288.00 0.00 5.88 0.90
342.00 288.00 0.00 5.91 0.88
343.00 288.00 0.00 5.94 0.85
344.00 288.00 0.00 5.97 0.83
345.00 288.00 0.00 6.00 0.80
346.00 288.00 0.00 6.03 0.78
347.00 288.00 0.00 6.06 0.76
348.00 288.00 0.00 6.09 0.73
349.00 288.00 0.00 6.12 0.71
350.00 288.00 0.00 6.15 0.68
351.00 288.00 0.00 6.18 0.66
352.00 288.00 0.00 6.21 0.63
353.00 288.00 0.00 6.24 0.61
354.00 288.00 0.00 6.27 0.59
355.00 288.00 0.00 6.30 0.56
356.00 288.00 0.00 6.33 0.54
357.00 288.00 0.00 6.36 0.51
358.00 288.00 0.00 6.39 0.49
359.00 288.00 0.00 6.42 0.46
360.00 288.00 0.00 6.45 0.44
361.00 288.00 0.00 6.48 0.42
362.00 288.00 0.00 6.51 0.39
363.00 288.00 0.00 6.54 0.37
364.00 288.00 0.00 6.57 0.34
365.00 288.00 0.00 6.60 0.32
366.00 288.00 0.00 6.63 0.29
367.00 288.00 0.00 6.66 0.27
368.00 288.00 0.00 6.69 0.24
369.00 288.00 0.00 6.72 0.22
370.00 288.00 0.00 6.75 0.20
371.00 288.00 0.00 6.78 0.17
372.00 288.00 0.00 6.81 0.15
373.00 288.00 0.00 6.84 0.12
374.00 288.00 0.00 6.87 0.10
375.00 288.00 0.00 6.90 0.07
376.00 288.00 0.00 6.93 0.05
377.00 288.00 0.00 6.96 0.02
378.00 288.00 0.00 6.99 -0.00
379.00 288.00 0.00 7.02 -0.02
380.00 288.00 0.00 7.05 -0.05
381.00 288.00 0.00 7.08 -0.07
382.00 288.00 0.00 7.11 -0.10
383.00 288.00 0.00 7.14 -0.12
384.00 288.00 0.00 7.17 -0.15
385.00 288.00 0.00 7.20 -0.17
386.00 288.00 0.00 7.23 -0.20
387.00 288.00 0.00 7.26 -0.22
388.00 288.00 0.00 7.29 -0.24
389.00 288.00 0.00 7.32 -0.27
390.00 288.00 0.00 7.35 -0.29
391.00 288.00 0.00 7.38 -0.32
392.00 288.00 0.00 7.40 -0.34
393.00 288.00 0.00 7.44 -0.37
394.00 288.00 0.00 7.47 -0.39
395.00 288.00 0.00 7.50 -0.42
396.00 288.00 0.00 7.52 -0.44
397.00 288.00 0.00 7.56 -0.46
398.00 288.00 0.00 7.59 -0.49
399.00 288.00 0.00 7.62 -0.51
400.00 288.00 0.00 7.65 -0.54
401.00 288.00 0.00 7.68 -0.56
402.00 288.00 0.00 7.71 -0.59
403.00 288.00 0.00 7.74 -0.61
404.00 288.00 0.00 7.76 -0.63
405.00 288.00 0.00 7.80 -0.66
406.00 288.00 0.00 7.83 -0.68
407.00 288.00 0.00 7.86 -0.71
408.00 288.00 0.00 7.89 -0.73
409.00 288.00 0.00 7.92 -0.76
410.00 288.00 0.00 7.95 -0.78
411.00 288.00 0.00 7.98 -0.80
412.00 288.00 0.00 8.01 -0.83
413.00 288.00 0.00 8.04 -0.85
414.00 288.00 0.00 8.07 -0.88
415.00 288.00 0.00 8.10 -0.90
416.00 288.00 0.00 8.12 -0.93
417.00 288.00 0.00 8.16 -0.95
418.00 288.00 0.00 8.19 -0.97
419.00 288.00 0.00 8.22 -1.00
420.00 288.00 0.00 8.25 -1.02
421.00 288.00 0.00 8.28 -1.05
422.00 288.00 0.00 8.31 -1.07
423.00 288.00 0.00 8.34 -1.10
424.00 288.00 0.00 8.37 -1.12
425.00 288.00 0.00 8.40 -1.14
426.00 288.00 0.00 8.43 -1.17
427.00 288.00 0.00 8.46 -1.19
428.00 288.00 0.00 8.49 -1.22
429.00 288.00 0.00 8.52 -1.24
430.00 288.00 0.00 8.55 -1.26
431.00 288.00 0.00 8.58 -1.29
432.00 288.00 0.00 8.61 -1.31
433.00 288.00 0.00 8.63 -1.34
434.00 288.00 0.00 8.67 -1.36
435.00 288.00 0.00 8.70 -1.38
436.00 288.00 0.00 8.73 -1.41
437.00 288.00 0.00 8.76 -1.43
438.00 288.00 0.00 8.79 -1.46
439.00 288.00 0.00 8.82 -1.48
440.00 288.00 0.00 8.85 -1.50
441.00 288.00 0.00 8.88 -1.53
442.00 288.00 0.00 8.91 -1.55
443.00 288.00 0.00 8.94 -1.57
444.00 288.00 0.00 8.97 -1.60
445.00 288.00 0.00 9.00 -1.62
446.00 288.00 0.00 9.03 -1.65
447.00 288.00 0.00 9.06 -1.67
448.00 288.00 0.00 9.09 -1.69
449.00 288.00 0.00 9.12 -1.72
450.00 288.00 0.00 9.15 -1.74
451.00 288.00 0.00 9.18 -1.76
452.00 288.00 0.00 9.21 -1.79
453.00 288.00 0.00 9.24 -1.81
454.00 288.00 0.00 9.27 -1.84
455.00 288.00 0.00 9.30 -1.86
456.00 288.00 0.00 9.33 -1.88
457.00 288.00 0.00 9.36 -1.91
458.00 288.00 0.00 9.39 -1.93
459.00 288.00 0.00 9.42 -1.95
460.00 288.00 0.00 9.45 -1.98
461.00 288.00 0.00 9.48 -2.00
462.00 288.00 0.00 9.51 -2.02
463.00 288.00 0.00 9.54 -2.05
464.00 288.00 0.00 9.56 -2.07
465.00 288.00 0.00 9.60 -2.09
466.00 288.00 0.00 9.63 -2.12
467.00 288.00 0.00 9.66 -2.14
468.00 288.00 0.00 9.69 -2.16
469.00 288.00 0.00 9.72 -2.19
470.00 288.00 0.00 9.75 -2.21
471.00 288.00 0.00 9.78 -2.23
472.00 288.00 0.00 9.81 -2.26
473.00 288.00 0.00 9.84 -2.28
474.00 288.00 0.00 9.87 -2.30
475.00 288.00 0.00 9.90 -2.33
476.00 288.00 0.00 9.93 -2.35
477.00 288.00 0.00 9.96 -2.37
478.00 288.00 0.00 9.99 -2.39
479.00 288.00 0.00 10.02 -2.42
480.00 288.00 0.00 10.05 -2.44
481.00 288.00 0.00 10.08 -2.46
482.00 288.00 0.00 10.11 -2.49
483.00 288.00 0.00 10.14 -2.51
484.00 288.00 0.00 10.17 -2.53
485.00 288.00 0.00 10.20 -2.55
486.00 288.00 0.00 10.23 -2.58
487.00 288.00 0.00 10.26 -2.60
488.00 288.00 0.00 10.29 -2.62
489.00 288.00 0.00 10.32 -2.64
490.00 288.00 0.00 10.35 -2.67
491.00 288.00 0.00 10.38 -2.69
492.00 288.00 0.00 10.41 -2.71
493.00 288.00 0.00 10.44 -2.74
494.00 288.00 0.00 10.47 -2.76
495.00 288.00 0.00 10.50 -2.78
496.00 288.00 0.00 10.53 -2.80
497.00 288.00 0.00 10.56 -2.82
498.00 288.00 0.00 10.59 -2.85
499.00 288.00 0.00 10.62 -2.87
500.00 288.00 0.00 10.65 -2.89
501.00 288.00 0.00 10.67 -2.91
502.00 288.00 0.00 10.70 -2.94
503.00 288.00 0.00 10.73 -2.96
504.00 288.00 0.00 10.76 -2.98
505.00 288.00 0.00 10.79 -3.00
506.00 288.00 0.00 10.82 -3.02
507.00 288.00 0.00 10.85 -3.04
508.00 288.00 0.00 10.88 -3.06
509.00 288.00 0.00 10.91 -3.09
510.00 288.00 0.00 10.94 -3.11
511.00 288.00 0.00 10.97 -3.13
512.00 288.00 0.00 10.99 -3.15
513.00 288.00 0.00 11.02 -3.17
514.00 288.00 0.00 11.05 -3.19
515.00 288.00 0.00 11.08 -3.21
516.00 288.00 0.00 11.10 -3.23
517.00 288.00 0.00 11.13 -3.25
518.00 288.00 0.00 11.16 -3.27
519.00 288.00 0.00 11.19 -3.29
520.00 288.00 0.00 11.21 -3.30
521.00 288.00 0.00 11.24 -3.32
522.00 288.00 0.00 11.27 -3.34
523.00 288.00 0.00 11.29 -3.36
524.00 288.00 0.00 11.32 -3.38
525.00 288.00 0.00 11.34 -3.40
526.00 288.00 0.00 11.37 -3.42
527.00 288.00 0.00 11.40 -3.44
528.00 288.00 0.00 11.42 -3.45
529.00 288.00 0.00 11.45 -3.47
530.00 288.00 0.00 11.47 -3.49
531.00 288.00 0.00 11.50 -3.51
532.00 288.00 0.00 11.52 -3.52
533.00 288.00 0.00 11.55 -3.54
534.00 288.00 0.00 11.57 -3.56
535.00 288.00 0.00 11.59 -3.57
536.00 288.00 0.00 11.62 -3.59
537.00 288.00 0.00 11.64 -3.61
538.00 288.00 0.00 11.67 -3.63
539.00 288.00 0.00 11.69 -3.64
540.00 288.00 0.00 11.71 -3.66
541.00 288.00 0.00 11.74 -3.67
542.00 288.00 0.00 11.76 -3.69
543.00 288.00 0.00 11.78 -3.71
544.00 288.00 0.00 11.81 -3.72
545.00 288.00 0.00 11.83 -3.74
546.00 288.00 0.00 11.85 -3.75
547.00 288.00 0.00 11.87 -3.77
548.00 288.00 0.00 11.90 -3.78
549.00 288.00 0.00 11.92 -3.80
550.00 288.00 0.00 11.94 -3.81
551.00 288.00 0.00 11.96 -3.83
552.00 288.00 0.00 11.98 -3.84
553.00 288.00 0.00 12.00 -3.86
554.00 288.00 0.00 12.02 -3.87
555.00 288.00 0.00 12.05 -3.88
556.00 288.00 0.00 12.07 -3.90
557.00 288.00 0.00 12.09 -3.91
558.00 288.00 0.00 12.11 -3.93
559.00 288.00 0.00 12.13 -3.94
560.00 288.00 0.00 12.15 -3.95
561.00 288.00 0.00 12.17 -3.97
562.00 288.00 0.00 12.19 -3.98
563.00 288.00 0.00 12.21 -3.99
564.00 288.00 0.00 12.23 -4.01
565.00 288.00 0.00 12.25 -4.02
566.00 288.00 0.00 12.27 -4.03
567.00 288.00 0.00 12.28 -4.04
568.00 288.00 0.00 12.30 -4.06
569.00 288.00 0.00 12.32 -4.07
570.00 288.00 0.00 12.34 -4.08
571.00 288.00 0.00 12.36 -4.09
572.00 288.00 0.00 12.38 -4.10
573.00 288.00 0.00 12.39 -4.12
574.00 288.00 0.00 12.41 -4.13
575.00 288.00 0.00 12.43 -4.14
576.00 288.00 0.00 12.45 -4.15
577.00 288.00 0.00 12.46 -4.16
578.00 288.00 0.00 12.48 -4.17
579.00 288.00 0.00 12.50 -4.18
580.00 288.00 0.00 12.52 -4.20
581.00 288.00 0.00 12.53 -4.21
582.00 288.00 0.00 12.55 -4.22
583.00 288.00 0.00 12.56 -4.23
584.00 288.00 0.00 12.58 -4.24
585.00 288.00 0.00 12.60 -4.25
586.00 288.00 0.00 12.61 -4.26
587.00 288.00 0.00 12.63 -4.27
588.00 288.00 0.00 12.64 -4.28
589.00 288.00 0.00 12.66 -4.29
590.00 288.00 0.00 12.67 -4.30
591.00 288.00 0.00 12.69 -4.31
592.00 288.00 0.00 12.70 -4.32
593.00 288.00 0.00 12.72 -4.33
594.00 288.00 0.00 12.73 -4.34
595.00 288.00 0.00 12.75 -4.34
596.00 288.00 0.00 12.76 -4.35
597.00 288.00 0.00 12.78 -4.36
598.00 288.00 0.00 12.79 -4.37
599.00 288.00 0.00 12.80 -4.38
600.00 288.00 0.00 12.82 -4.39
601.00 288.00 0.00 12.83 -4.40
602.00 288.00 0.00 12.84 -4.40
603.00 288.00 0.00 12.86 -4.41
604.00 288.00 0.00 12.87 -4.42
605.00 288.00 0.00 12.88 -4.43
606.00 288.00 0.00 12.89 -4.44
607.00 288.00 0.00 12.91 -4.44
608.00 288.00 0.00 12.92 -4.45
609.00 288.00 0.00 12.93 -4.46
610.00 288.00 0.00 12.94 -4.47
611.00 288.00 0.00 12.95 -4.47
612.00 288.00 0.00 12.96 -4.48
613.00 288.00 0.00 12.98 -4.49
614.00 288.00 0.00 12.99 -4.49
615.00 288.00 0.00 13.00 -4.50
616.00 288.00 0.00 13.01 -4.51
617.00 288.00 0.00 13.02 -4.51
618.00 288.00 0.00 13.03 -4.52
619.00 288.00 0.00 13.04 -4.53
620.00 288.00 0.00 13.05 -4.53
621.00 288.00 0.00 13.06 -4.54
622.00 288.00 0.00 13.07 -4.55
623.00 288.00 0.00 13.08 -4.55
624.00 288.00 0.00 13.09 -4.56
625.00 288.00 0.00 13.10 -4.56
626.00 288.00 0.00 13.11 -4.57
627.00 288.00 0.00 13.12 -4.57
628.00 288.00 0.00 13.13 -4.58
629.00 288.00 0.00 13.13 -4.59
630.00 288.00 0.00 13.14 -4.59
631.00 288.00 0.00 13.15 -4.60
632.00 288.00 0.00 13.16 -4.60
633.00 288.00 0.00 13.17 -4.61
634.00 288.00 0.00 13.17 -4.61
635.00 288.00 0.00 13.18 -4.61
636.00 288.00 0.00 13.19 -4.62
637.00 288.00 0.00 13.20 -4.62
638.00 288.00 0.00 13.20 -4.63
639.00 288.00 0.00 13.21 -4.63
640.00 288.00 0.00 13.22 -4.64
641.00 288.00 0.00 13.22 -4.64
642.00 288.00 0.00 13.23 -4.64
643.00 288.00 0.00 13.24 -4.65
644.00 288.00 0.00 13.24 -4.65
645.00 288.00 0.00 13.25 -4.65
646.00 288.00 0.00 13.25 -4.66
647.00 288.00 0.00 13.26 -4.66
648.00 288.00 0.00 13.27 -4.66
649.00 288.00 0.00 13.27 -4.67
650.00 288.00 0.00 13.28 -4.67
651.00 288.00 0.00 13.28 -4.67
652.00 288.00 0.00 13.29 -4.68
653.00 288.00 0.00 13.29 -4.68
654.00 288.00 0.00 13.30 -4.68
655.00 288.00 0.00 13.30 -4.68
656.00 288.00 0.00 13.30 -4.69
657.00 288.00 0.00 13.31 -4.69
658.00 288.00 0.00 13.31 -4.69
659.00 288.00 0.00 13.31 -4.69
660.00 288.00 0.00 13.32 -4.70
661.00 288.00 0.00 13.32 -4.70
662.00 288.00 0.00 13.32 -4.70
663.00 288.00 0.00 13.33 -4.70
664.00 288.00 0.00 13.33 -4.70
665.00 288.00 0.00 13.33 -4.70
666.00 288.00 0.00 13.34 -4.71
667.00 288.00 0.00 13.34 -4.71
668.00 288.00 0.00 13.34 -4.71
669.00 288.00 0.00 13.34 -4.71
670.00 288.00 0.00 13.34 -4.71
671.00 288.00 0.00 13.35 -4.71
672.00 288.00 0.00 13.35 -4.71
673.00 288.00 0.00 13.35 -4.71
674.00 288.00 0.00 13.35 -4.71
675.00 288.00 0.00 13.35 -4.71
676.00 288.00 0.00 13.35 -4.71
677.00 288.00 0.00 13.35 -4.72
678.00 288.00 0.00 13.35 -4.72
679.00 288.00 0.00 13.35 -4.72
680.00 288.00 0.00 13.35 -4.72
681.00 288.00 0.00 13.35 -4.72
682.00 288.00 0.00 13.35 -4.72
683.00 288.00 0.00 13.35 -4.72
684.00 288.00 0.00 13.35 -4.72
685.00 288.00 0.00 13.35 -4.72
686.00 288.00 0.00 13.35 -4.72
687.00 288.00 0.00 13.35 -4.72
688.00 288.00 0.00 13.35 -4.72
689.00 288.00 0.00 13.35 -4.72
690.00 288.00 0.00 13.35 -4.72
691.00 288.00 0.00 13.35 -4.72
692.00 288.00 0.00 13.35 -4.72
693.00 288.00 0.00 13.35 -4.72
694.00 288.00 0.00 13.35 -4.72
695.00 288.00 0.00 13.35 -4.72
696.00 288.00 0.00 13.35 -4.72
697.00 288.00 0.00 13.35 -4.72
698.00 288.00 0.00 13.35 -4.72
699.00 288.00 0.00 13.35 -4.72
700.00 288.00 0.00 13.35 -4.72
701.00 288.00 0.00 13.35 -4.72
702.00 288.00 0.00 13.35 -4.72
703.00 288.00 0.00 13.35 -4.72
704.00 288.00 0.00 13.35 -4.72
705.00 288.00 0.00 13.35 -4.72
706.00 288.00 0.00 13.35 -4.72
707.00 288.00 0.00 13.35 -4.72
708.00 288.00 0.00 13.35 -4.72
709.00 288.00 0.00 13.35 -4.72
710.00 288.00 0.00 13.35 -4.72
711.00 288.00 0.00 13.35 -4.72
712.00 288.00 0.00 13.35 -4.72
713.00 288.00 0.00 13.35 -4.72
714.00 288.00 0.00 13.35 -4.72
715.00 288.00 0.00 13.35 -4.72
716.00 288.00 0.00 13.35 -4.72
717.00 288.00 0.00 13.35 -4.72
718.00 288.00 0.00 13.35 -4.72
719.00 288.00 0.00 13.35 -4.72
720.00 288.00 0.00 13.35 -4.72
721.00 288.00 0.00 13.35 -4.72
722.00 288.00 0.00 13.35 -4.72
723.00 288.00 0.00 13.35 -4.72
724.00 288.00 0.00 13.35 -4.72
725.00 288.00 0.00 13.35 -4.72
726.00 288.00 0.00 13.35 -4.72
727.00 288.00 0.00 13.35 -4.72
728.00 288.00 0.00 13.35 -4.72
729.00 288.00 0.00 13.35 -4.72
730.00 288.00 0.00 13.35 -4.72
731.00 288.00 0.00 13.35 -4.72
732.00 288.00 0.00 13.35 -4.72
733.00 288.00 0.00 13.35 -4.72
734.00 288.00 0.00 13.35 -4.72
735.00 288.00 0.00 13.35 -4.72
736.00 288.00 0.00 13.35 -4.72
737.00 288.00 0.00 13.35 -4.72
738.00 288.00 0.00 13.35 -4.72
739.00 288.00 0.00 13.35 -4.72
740.00 288.00 0.00 13.35 -4.72
741.00 288.00 0.00 13.35 -4.72
742.00 288.00 0.00 13.35 -4.72
743.00 288.00 0.00 13.35 -4.72
744.00 288.00 0.00 13.35 -4.72
745.00 288.00 0.00 13.35 -4.72
746.00 288.00 0.00 13.35 -4.72
747.00 288.00 0.00 13.35 -4.72
748.00 288.00 0.00 13.35 -4.72
749.00 288.00 0.00 13.35 -4.72
750.00 288.00 0.00 13.35 -4.72
751.00 288.00 0.00 13.35 -4.72
752.00 288.00 0.00 13.35 -4.72
753.00 288.00 0.00 13.35 -4.72
754.00 288.00 0.00 13.35 -4.72
755.00 288.00 0.00 13.35 -4.72
756.00 288.00 0.00 13.35 -4.72
757.00 288.00 0.00 13.35 -4.72
758.00 288.00 0.00 13.35 -4.72
759.00 288.00 0.00 13.35 -4.72
760.00 288.00 0.00 13.35 -4.72
761.00 288.00 0.00 13.35 -4.72
762.00 288.00 0.00 13.35 -4.72
763.00 288.00 0.00 13.35 -4.72
764.00 288.00 0.00 13.35 -4.72
765.00 288.00 0.00 13.35 -4.72
766.00 288.00 0.00 13.35 -4.72
767.00 288.00 0.00 13.35 -4.72
768.00 288.00 0.00 13.35 -4.72
769.00 288.00 0.00 13.35 -4.72
770.00 288.00 0.00 13.35 -4.72
771.00 288.00 0.00 13.35 -4.72
772.00 288.00 0.00 13.35 -4.72
773.00 288.00 0.00 13.35 -4.72
774.00 288.00 0.00 13.35 -4.72
775.00 288.00 0.00 13.35 -4.72
776.00 288.00 0.00 13.35 -4.72
777.00 288.00 0.00 13.35 -4.72
778.00 288.00 0.00 13.35 -4.72
779.00 288.00 0.00 13.35 -4.72
780.00 288.00 0.00 13.35 -4.72
781.00 288.00 0.00 13.35 -4.72
782.00 288.00 0.00 13.35 -4.72
783.00 288.00 0.00 13.35 -4.72
784.00 288.00 0.00 13.35 -4.72
785.00 288.00 0.00 13.35 -4.72
786.00 288.00 0.00 13.35 -4.72
787.00 288.00 0.00 13.35 -4.72
788.00 288.00 0.00 13.35 -4.72
789.00 288.00 0.00 13.35 -4.72
790.00 288.00 0.00 13.35 -4.72
791.00 288.00 0.00 13.35 -4.72
792.00 288.00 0.00 13.35 -4.72
793.00 288.00 0.00 13.35 -4.72
794.00 288.00 0.00 13.35 -4.72
795.00 288.00 0.00 13.35 -4.72
796.00 288.00 0.00 13.35 -4.72
797.00 288.00 0.00 13.35 -4.72
798.00 288.00 0.00 13.35 -4.72
799.00 288.00 0.00 13.35 -4.72
800.00 288.00 0.00 13.35 -4.72
801.00 288.00 0.00 13.35 -4.72
802.00 288.00 0.00 13.35 -4.72
803.00 288.00 0.00 13.35 -4.72
804.00 288.00 0.00 13.35 -4.72
805.00 288.00 0.00 13.35 -4.72
806.00 288.00 0.00 13.35 -4.72
807.00 288.00 0.00 13.35 -4.72
808.00 288.00 0.00 13.35 -4.72
809.00 288.00 0.00 13.35 -4.72
810.00 288.00 0.00 13.35 -4.72
811.00 288.00 0.00 13.35 -4.72
812.00 288.00 0.00 13.35 -4.72
813.00 288.00 0.00 13.35 -4.72
814.00 288.00 0.00 13.35 -4.72
815.00 288.00 0.00 13.35 -4.72
816.00 288.00 0.00 13.35 -4.72
817.00 288.00 0.00 13.35 -4.72
818.00 288.00 0.00 13.35 -4.72
819.00 288.00 0.00 13.35 -4.72
820.00 288.00 0.00 13.35 -4.72
821.00 288.00 0.00 13.35 -4.72
822.00 288.00 0.00 13.35 -4.72
823.00 288.00 0.00 13.35 -4.72
824.00 288.00 0.00 13.35 -4.72
825.00 288.00 0.00 13.35 -4.72
826.00 288.00 0.00 13.35 -4.72
827.00 288.00 0.00 13.35 -4.72
828.00 288.00 0.00 13.35 -4.72
829.00 288.00 0.00 13.35 -4.72
830.00 288.00 0.00 13.35 -4.72
831.00 288.00 0.00 13.35 -4.72
