1000.00 288.00 00.00
0.00 288.00 0.00 0.79 6.19
1.00 288.00 0.00 0.79 6.19
2.00 288.00 0.00 0.79 6.19
3.00 288.00 0.00 0.79 6.19
4.00 288.00 0.00 0.79 6.19
5.00 288.00 0.00 0.79 6.19
6.00 288.00 0.00 0.79 6.19
7.00 288.00 0.00 0.79 6.19
8.00 288.00 0.00 0.79 6.19
9.00 288.00 0.00 0.79 6.19
10.00 288.00 0.00 0.79 6.19
11.00 288.00 0.00 0.79 6.19
12.00 288.00 0.00 0.79 6.19
13.00 288.00 0.00 0.79 6.19
14.00 288.00 0.00 0.79 6.19
15.00 288.00 0.00 0.79 6.19
16.00 288.00 0.00 0.79 6.19
17.00 288.00 0.00 0.79 6.19
18.00 288.00 0.00 0.79 6.19
19.00 288.00 0.00 0.79 6.19
20.00 288.00 0.00 0.79 6.19
21.00 288.00 0.00 0.79 6.19
22.00 288.00 0.00 0.79 6.19
23.00 288.00 0.00 0.79 6.19
24.00 288.00 0.00 0.79 6.19
25.00 288.00 0.00 0.79 6.19
26.00 288.00 0.00 0.79 6.19
27.00 288.00 0.00 0.79 6.19
28.00 288.00 0.00 0.79 6.19
29.00 288.00 0.00 0.79 6.19
30.00 288.00 0.00 0.79 6.19
31.00 288.00 0.00 0.79 6.19
32.00 288.00 0.00 0.79 6.19
33.00 288.00 0.00 0.79 6.19
34.00 288.00 0.00 0.79 6.19
35.00 288.00 0.00 0.79 6.19
36.00 288.00 0.00 0.79 6.19
37.00 288.00 0.00 0.79 6.19
38.00 288.00 0.00 0.79 6.19
39.00 288.00 0.00 0.79 6.19
40.00 288.00 0.00 0.79 6.19
41.00 288.00 0.00 0.79 6.19
42.00 288.00 0.00 0.79 6.19
43.00 288.00 0.00 0.79 6.19
44.00 288.00 0.00 0.79 6.19
45.00 288.00 0.00 0.79 6.19
46.00 288.00 0.00 0.79 6.19
47.00 288.00 0.00 0.79 6.19
48.00 288.00 0.00 0.79 6.18
49.00 288.00 0.00 0.79 6.18
50.00 288.00 0.00 0.79 6.18
51.00 288.00 0.00 0.80 6.18
52.00 288.00 0.00 0.80 6.18
53.00 288.00 0.00 0.80 6.18
54.00 288.00 0.00 0.80 6.18
55.00 288.00 0.00 0.80 6.18
56.00 288.00 0.00 0.81 6.18
57.00 288.00 0.00 0.81 6.18
58.00 288.00 0.00 0.81 6.17
59.00 288.00 0.00 0.81 6.17
60.00 288.00 0.00 0.82 6.17
61.00 288.00 0.00 0.82 6.17
62.00 288.00 0.00 0.82 6.17
63.00 288.00 0.00 0.82 6.17
64.00 288.00 0.00 0.83 6.16
65.00 288.00 0.00 0.83 6.16
66.00 288.00 0.00 0.83 6.16
67.00 288.00 0.00 0.84 6.16
68.00 288.00 0.00 0.84 6.16
69.00 288.00 0.00 0.85 6.15
70.00 288.00 0.00 0.85 6.15
71.00 288.00 0.00 0.85 6.15
72.00 288.00 0.00 0.86 6.15
73.00 288.00 0.00 0.86 6.14
74.00 288.00 0.00 0.87 6.14
75.00 288.00 0.00 0.87 6.14
76.00 288.00 0.00 0.88 6.13
77.00 288.00 0.00 0.88 6.13
78.00 288.00 0.00 0.89 6.13
79.00 288.00 0.00 0.89 6.12
80.00 288.00 0.00 0.90 6.12
81.00 288.00 0.00 0.90 6.12
82.00 288.00 0.00 0.91 6.11
83.00 288.00 0.00 0.92 6.11
84.00 288.00 0.00 0.92 6.11
85.00 288.00 0.00 0.93 6.10
86.00 288.00 0.00 0.93 6.10
87.00 288.00 0.00 0.94 6.10
88.00 288.00 0.00 0.95 6.09
89.00 288.00 0.00 0.95 6.09
90.00 288.00 0.00 0.96 6.08
91.00 288.00 0.00 0.97 6.08
92.00 288.00 0.00 0.97 6.08
93.00 288.00 0.00 0.98 6.07
94.00 288.00 0.00 0.99 6.07
95.00 288.00 0.00 1.00 6.06
96.00 288.00 0.00 1.00 6.06
97.00 288.00 0.00 1.01 6.05
98.00 288.00 0.00 1.02 6.05
99.00 288.00 0.00 1.03 6.04
100.00 288.00 0.00 1.04 6.04
101.00 288.00 0.00 1.05 6.03
102.00 288.00 0.00 1.05 6.03
103.00 288.00 0.00 1.06 6.02
104.00 288.00 0.00 1.07 6.02
105.00 288.00 0.00 1.08 6.01
106.00 288.00 0.00 1.09 6.00
107.00 288.00 0.00 1.10 6.00
108.00 288.00 0.00 1.11 5.99
109.00 288.00 0.00 1.12 5.99
110.00 288.00 0.00 1.13 5.98
111.00 288.00 0.00 1.14 5.97
112.00 288.00 0.00 1.15 5.97
113.00 288.00 0.00 1.16 5.96
114.00 288.00 0.00 1.17 5.95
115.00 288.00 0.00 1.18 5.95
116.00 288.00 0.00 1.19 5.94
117.00 288.00 0.00 1.20 5.93
118.00 288.00 0.00 1.21 5.93
119.00 288.00 0.00 1.22 5.92
120.00 288.00 0.00 1.23 5.91
121.00 288.00 0.00 1.24 5.90
122.00 288.00 0.00 1.25 5.90
123.00 288.00 0.00 1.27 5.89
124.00 288.00 0.00 1.28 5.88
125.00 288.00 0.00 1.29 5.87
126.00 288.00 0.00 1.30 5.87
127.00 288.00 0.00 1.31 5.86
128.00 288.00 0.00 1.32 5.85
129.00 288.00 0.00 1.34 5.84
130.00 288.00 0.00 1.35 5.83
131.00 288.00 0.00 1.36 5.82
132.00 288.00 0.00 1.37 5.82
133.00 288.00 0.00 1.39 5.81
134.00 288.00 0.00 1.40 5.80
135.00 288.00 0.00 1.41 5.79
136.00 288.00 0.00 1.43 5.78
137.00 288.00 0.00 1.44 5.77
138.00 288.00 0.00 1.45 5.76
139.00 288.00 0.00 1.47 5.75
140.00 288.00 0.00 1.48 5.74
141.00 288.00 0.00 1.50 5.73
142.00 288.00 0.00 1.51 5.72
143.00 288.00 0.00 1.52 5.71
144.00 288.00 0.00 1.54 5.70
145.00 288.00 0.00 1.55 5.69
146.00 288.00 0.00 1.57 5.68
147.00 288.00 0.00 1.58 5.67
148.00 288.00 0.00 1.60 5.66
149.00 288.00 0.00 1.61 5.65
150.00 288.00 0.00 1.63 5.64
151.00 288.00 0.00 1.64 5.63
152.00 288.00 0.00 1.66 5.62
153.00 288.00 0.00 1.67 5.60
154.00 288.00 0.00 1.69 5.59
155.00 288.00 0.00 1.71 5.58
156.00 288.00 0.00 1.72 5.57
157.00 288.00 0.00 1.74 5.56
158.00 288.00 0.00 1.75 5.54
159.00 288.00 0.00 1.77 5.53
160.00 288.00 0.00 1.79 5.52
161.00 288.00 0.00 1.80 5.51
162.00 288.00 0.00 1.82 5.49
163.00 288.00 0.00 1.84 5.48
164.00 288.00 0.00 1.85 5.47
165.00 288.00 0.00 1.87 5.45
166.00 288.00 0.00 1.89 5.44
167.00 288.00 0.00 1.91 5.43
168.00 288.00 0.00 1.92 5.41
169.00 288.00 0.00 1.94 5.40
170.00 288.00 0.00 1.96 5.39
171.00 288.00 0.00 1.98 5.37
172.00 288.00 0.00 2.00 5.36
173.00 288.00 0.00 2.02 5.34
174.00 288.00 0.00 2.03 5.33
175.00 288.00 0.00 2.05 5.31
176.00 288.00 0.00 2.07 5.30
177.00 288.00 0.00 2.09 5.28
178.00 288.00 0.00 2.11 5.27
179.00 288.00 0.00 2.13 5.25
180.00 288.00 0.00 2.15 5.24
181.00 288.00 0.00 2.17 5.22
182.00 288.00 0.00 2.19 5.20
183.00 288.00 0.00 2.21 5.19
184.00 288.00 0.00 2.23 5.17
185.00 288.00 0.00 2.25 5.15
186.00 288.00 0.00 2.27 5.14
187.00 288.00 0.00 2.29 5.12
188.00 288.00 0.00 2.31 5.10
189.00 288.00 0.00 2.33 5.09
190.00 288.00 0.00 2.35 5.07
191.00 288.00 0.00 2.37 5.05
192.00 288.00 0.00 2.39 5.03
193.00 288.00 0.00 2.41 5.02
194.00 288.00 0.00 2.43 5.00
195.00 288.00 0.00 2.46 4.98
196.00 288.00 0.00 2.48 4.96
197.00 288.00 0.00 2.50 4.94
198.00 288.00 0.00 2.52 4.92
199.00 288.00 0.00 2.54 4.90
200.00 288.00 0.00 2.57 4.88
201.00 288.00 0.00 2.59 4.86
202.00 288.00 0.00 2.61 4.84
203.00 288.00 0.00 2.63 4.82
204.00 288.00 0.00 2.66 4.80
205.00 288.00 0.00 2.68 4.78
206.00 288.00 0.00 2.70 4.76
207.00 288.00 0.00 2.72 4.74
208.00 288.00 0.00 2.75 4.72
209.00 288.00 0.00 2.77 4.70
210.00 288.00 0.00 2.79 4.68
211.00 288.00 0.00 2.82 4.66
212.00 288.00 0.00 2.84 4.63
213.00 288.00 0.00 2.87 4.61
214.00 288.00 0.00 2.89 4.59
215.00 288.00 0.00 2.91 4.57
216.00 288.00 0.00 2.94 4.55
217.00 288.00 0.00 2.96 4.52
218.00 288.00 0.00 2.99 4.50
219.00 288.00 0.00 3.01 4.48
220.00 288.00 0.00 3.04 4.45
221.00 288.00 0.00 3.06 4.43
222.00 288.00 0.00 3.09 4.41
223.00 288.00 0.00 3.11 4.38
224.00 288.00 0.00 3.14 4.36
225.00 288.00 0.00 3.16 4.33
226.00 288.00 0.00 3.19 4.31
227.00 288.00 0.00 3.21 4.29
228.00 288.00 0.00 3.24 4.26
229.00 288.00 0.00 3.26 4.24
230.00 288.00 0.00 3.29 4.21
231.00 288.00 0.00 3.31 4.19
232.00 288.00 0.00 3.34 4.16
233.00 288.00 0.00 3.36 4.14
234.00 288.00 0.00 3.39 4.11
235.00 288.00 0.00 3.41 4.09
236.00 288.00 0.00 3.44 4.06
237.00 288.00 0.00 3.46 4.04
238.00 288.00 0.00 3.49 4.02
239.00 288.00 0.00 3.51 3.99
240.00 288.00 0.00 3.54 3.96
241.00 288.00 0.00 3.56 3.94
242.00 288.00 0.00 3.59 3.91
243.00 288.00 0.00 3.61 3.89
244.00 288.00 0.00 3.64 3.86
245.00 288.00 0.00 3.66 3.84
246.00 288.00 0.00 3.69 3.81
247.00 288.00 0.00 3.71 3.79
248.00 288.00 0.00 3.74 3.76
249.00 288.00 0.00 3.76 3.74
250.00 288.00 0.00 3.79 3.71
251.00 288.00 0.00 3.81 3.68
252.00 288.00 0.00 3.84 3.66
253.00 288.00 0.00 3.86 3.63
254.00 288.00 0.00 3.89 3.61
255.00 288.00 0.00 3.91 3.58
256.00 288.00 0.00 3.94 3.55
257.00 288.00 0.00 3.96 3.53
258.00 288.00 0.00 3.99 3.50
259.00 288.00 0.00 4.01 3.47
260.00 288.00 0.00 4.04 3.45
261.00 288.00 0.00 4.06 3.42
262.00 288.00 0.00 4.09 3.39
263.00 288.00 0.00 4.11 3.37
264.00 288.00 0.00 4.14 3.34
265.00 288.00 0.00 4.16 3.31
266.00 288.00 0.00 4.19 3.29
267.00 288.00 0.00 4.21 3.26
268.00 288.00 0.00 4.24 3.23
269.00 288.00 0.00 4.26 3.21
270.00 288.00 0.00 4.29 3.18
271.00 288.00 0.00 4.31 3.15
272.00 288.00 0.00 4.34 3.12
273.00 288.00 0.00 4.36 3.10
274.00 288.00 0.00 4.39 3.07
275.00 288.00 0.00 4.41 3.04
276.00 288.00 0.00 4.44 3.01
277.00 288.00 0.00 4.46 2.99
278.00 288.00 0.00 4.49 2.96
279.00 288.00 0.00 4.51 2.93
280.00 288.00 0.00 4.54 2.90
281.00 288.00 0.00 4.56 2.88
282.00 288.00 0.00 4.59 2.85
283.00 288.00 0.00 4.61 2.82
284.00 288.00 0.00 4.64 2.79
285.00 288.00 0.00 4.66 2.76
286.00 288.00 0.00 4.69 2.74
287.00 288.00 0.00 4.71 2.71
288.00 288.00 0.00 4.74 2.68
289.00 288.00 0.00 4.76 2.65
290.00 288.00 0.00 4.79 2.62
291.00 288.00 0.00 4.81 2.59
292.00 288.00 0.00 4.84 2.57
293.00 288.00 0.00 4.86 2.54
294.00 288.00 0.00 4.89 2.51
295.00 288.00 0.00 4.91 2.48
296.00 288.00 0.00 4.94 2.45
297.00 288.00 0.00 4.96 2.42
298.00 288.00 0.00 4.99 2.39
299.00 288.00 0.00 5.01 2.37
300.00 288.00 0.00 5.04 2.34
301.00 288.00 0.00 5.06 2.31
302.00 288.00 0.00 5.09 2.28
303.00 288.00 0.00 5.11 2.25
304.00 288.00 0.00 5.14 2.22
305.00 288.00 0.00 5.16 2.19
306.00 288.00 0.00 5.19 2.16
307.00 288.00 0.00 5.21 2.13
308.00 288.00 0.00 5.24 2.10
309.00 288.00 0.00 5.26 2.08
310.00 288.00 0.00 5.29 2.05
311.00 288.00 0.00 5.31 2.02
312.00 288.00 0.00 5.34 1.99
313.00 288.00 0.00 5.36 1.96
314.00 288.00 0.00 5.39 1.93
315.00 288.00 0.00 5.41 1.90
316.00 288.00 0.00 5.44 1.87
317.00 288.00 0.00 5.46 1.84
318.00 288.00 0.00 5.49 1.81
319.00 288.00 0.00 5.51 1.78
320.00 288.00 0.00 5.54 1.75
321.00 288.00 0.00 5.56 1.72
322.00 288.00 0.00 5.59 1.69
323.00 288.00 0.00 5.61 1.66
324.00 288.00 0.00 5.64 1.63
325.00 288.00 0.00 5.66 1.60
326.00 288.00 0.00 5.69 1.57
327.00 288.00 0.00 5.71 1.54
328.00 288.00 0.00 5.74 1.52
329.00 288.00 0.00 5.76 1.49
330.00 288.00 0.00 5.79 1.46
331.00 288.00 0.00 5.81 1.43
332.00 288.00 0.00 5.84 1.40
333.00 288.00 0.00 5.86 1.37
334.00 288.00 0.00 5.89 1.34
335.00 288.00 0.00 5.91 1.31
336.00 288.00 0.00 5.94 1.28
337.00 288.00 0.00 5.96 1.25
338.00 288.00 0.00 5.99 1.22
339.00 288.00 0.00 6.01 1.19
340.00 288.00 0.00 6.04 1.16
341.00 288.00 0.00 6.06 1.13
342.00 288.00 0.00 6.09 1.10
343.00 288.00 0.00 6.11 1.06
344.00 288.00 0.00 6.14 1.03
345.00 288.00 0.00 6.16 1.00
346.00 288.00 0.00 6.19 0.97
347.00 288.00 0.00 6.21 0.94
348.00 288.00 0.00 6.24 0.91
349.00 288.00 0.00 6.26 0.88
350.00 288.00 0.00 6.29 0.85
351.00 288.00 0.00 6.31 0.82
352.00 288.00 0.00 6.34 0.79
353.00 288.00 0.00 6.36 0.76
354.00 288.00 0.00 6.39 0.73
355.00 288.00 0.00 6.41 0.70
356.00 288.00 0.00 6.44 0.67
357.00 288.00 0.00 6.46 0.64
358.00 288.00 0.00 6.49 0.61
359.00 288.00 0.00 6.51 0.58
360.00 288.00 0.00 6.54 0.55
361.00 288.00 0.00 6.56 0.52
362.00 288.00 0.00 6.59 0.49
363.00 288.00 0.00 6.61 0.46
364.00 288.00 0.00 6.64 0.43
365.00 288.00 0.00 6.66 0.40
366.00 288.00 0.00 6.69 0.37
367.00 288.00 0.00 6.71 0.34
368.00 288.00 0.00 6.74 0.31
369.00 288.00 0.00 6.76 0.27
370.00 288.00 0.00 6.79 0.24
371.00 288.00 0.00 6.81 0.21
372.00 288.00 0.00 6.84 0.18
373.00 288.00 0.00 6.86 0.15
374.00 288.00 0.00 6.89 0.12
375.00 288.00 0.00 6.91 0.09
376.00 288.00 0.00 6.94 0.06
377.00 288.00 0.00 6.96 0.03
378.00 288.00 0.00 6.99 0.00
379.00 288.00 0.00 7.01 -0.03
380.00 288.00 0.00 7.04 -0.06
381.00 288.00 0.00 7.06 -0.09
382.00 288.00 0.00 7.09 -0.12
383.00 288.00 0.00 7.11 -0.15
384.00 288.00 0.00 7.14 -0.18
385.00 288.00 0.00 7.16 -0.21
386.00 288.00 0.00 7.19 -0.24
387.00 288.00 0.00 7.21 -0.27
388.00 288.00 0.00 7.24 -0.31
389.00 288.00 0.00 7.26 -0.34
390.00 288.00 0.00 7.29 -0.37
391.00 288.00 0.00 7.31 -0.40
392.00 288.00 0.00 7.34 -0.43
393.00 288.00 0.00 7.36 -0.46
394.00 288.00 0.00 7.39 -0.49
395.00 288.00 0.00 7.41 -0.52
396.00 288.00 0.00 7.44 -0.55
397.00 288.00 0.00 7.46 -0.58
398.00 288.00 0.00 7.49 -0.61
399.00 288.00 0.00 7.51 -0.64
400.00 288.00 0.00 7.54 -0.67
401.00 288.00 0.00 7.56 -0.70
402.00 288.00 0.00 7.59 -0.73
403.00 288.00 0.00 7.61 -0.76
404.00 288.00 0.00 7.64 -0.79
405.00 288.00 0.00 7.66 -0.82
406.00 288.00 0.00 7.69 -0.85
407.00 288.00 0.00 7.71 -0.88
408.00 288.00 0.00 7.74 -0.91
409.00 288.00 0.00 7.76 -0.94
410.00 288.00 0.00 7.79 -0.97
411.00 288.00 0.00 7.81 -1.00
412.00 288.00 0.00 7.84 -1.03
413.00 288.00 0.00 7.86 -1.06
414.00 288.00 0.00 7.89 -1.10
415.00 288.00 0.00 7.91 -1.13
416.00 288.00 0.00 7.94 -1.16
417.00 288.00 0.00 7.96 -1.19
418.00 288.00 0.00 7.99 -1.22
419.00 288.00 0.00 8.01 -1.25
420.00 288.00 0.00 8.04 -1.28
421.00 288.00 0.00 8.06 -1.31
422.00 288.00 0.00 8.09 -1.34
423.00 288.00 0.00 8.11 -1.37
424.00 288.00 0.00 8.14 -1.40
425.00 288.00 0.00 8.16 -1.43
426.00 288.00 0.00 8.19 -1.46
427.00 288.00 0.00 8.21 -1.49
428.00 288.00 0.00 8.24 -1.52
429.00 288.00 0.00 8.26 -1.54
430.00 288.00 0.00 8.29 -1.57
431.00 288.00 0.00 8.31 -1.60
432.00 288.00 0.00 8.34 -1.63
433.00 288.00 0.00 8.36 -1.66
434.00 288.00 0.00 8.39 -1.69
435.00 288.00 0.00 8.41 -1.72
436.00 288.00 0.00 8.44 -1.75
437.00 288.00 0.00 8.46 -1.78
438.00 288.00 0.00 8.49 -1.81
439.00 288.00 0.00 8.51 -1.84
440.00 288.00 0.00 8.54 -1.87
441.00 288.00 0.00 8.56 -1.90
442.00 288.00 0.00 8.59 -1.93
443.00 288.00 0.00 8.61 -1.96
444.00 288.00 0.00 8.64 -1.99
445.00 288.00 0.00 8.66 -2.02
446.00 288.00 0.00 8.69 -2.05
447.00 288.00 0.00 8.71 -2.08
448.00 288.00 0.00 8.74 -2.10
449.00 288.00 0.00 8.76 -2.13
450.00 288.00 0.00 8.79 -2.16
451.00 288.00 0.00 8.81 -2.19
452.00 288.00 0.00 8.84 -2.22
453.00 288.00 0.00 8.86 -2.25
454.00 288.00 0.00 8.89 -2.28
455.00 288.00 0.00 8.91 -2.31
456.00 288.00 0.00 8.94 -2.34
457.00 288.00 0.00 8.96 -2.37
458.00 288.00 0.00 8.99 -2.39
459.00 288.00 0.00 9.01 -2.42
460.00 288.00 0.00 9.04 -2.45
461.00 288.00 0.00 9.06 -2.48
462.00 288.00 0.00 9.09 -2.51
463.00 288.00 0.00 9.11 -2.54
464.00 288.00 0.00 9.14 -2.57
465.00 288.00 0.00 9.16 -2.59
466.00 288.00 0.00 9.19 -2.62
467.00 288.00 0.00 9.21 -2.65
468.00 288.00 0.00 9.24 -2.68
469.00 288.00 0.00 9.26 -2.71
470.00 288.00 0.00 9.29 -2.74
471.00 288.00 0.00 9.31 -2.76
472.00 288.00 0.00 9.34 -2.79
473.00 288.00 0.00 9.36 -2.82
474.00 288.00 0.00 9.39 -2.85
475.00 288.00 0.00 9.41 -2.88
476.00 288.00 0.00 9.44 -2.90
477.00 288.00 0.00 9.46 -2.93
478.00 288.00 0.00 9.49 -2.96
479.00 288.00 0.00 9.51 -2.99
480.00 288.00 0.00 9.54 -3.01
481.00 288.00 0.00 9.56 -3.04
482.00 288.00 0.00 9.59 -3.07
483.00 288.00 0.00 9.61 -3.10
484.00 288.00 0.00 9.64 -3.12
485.00 288.00 0.00 9.66 -3.15
486.00 288.00 0.00 9.69 -3.18
487.00 288.00 0.00 9.71 -3.21
488.00 288.00 0.00 9.74 -3.23
489.00 288.00 0.00 9.76 -3.26
490.00 288.00 0.00 9.79 -3.29
491.00 288.00 0.00 9.81 -3.31
492.00 288.00 0.00 9.84 -3.34
493.00 288.00 0.00 9.86 -3.37
494.00 288.00 0.00 9.89 -3.39
495.00 288.00 0.00 9.91 -3.42
496.00 288.00 0.00 9.94 -3.45
497.00 288.00 0.00 9.96 -3.47
498.00 288.00 0.00 9.99 -3.50
499.00 288.00 0.00 10.01 -3.53
500.00 288.00 0.00 10.04 -3.55
501.00 288.00 0.00 10.06 -3.58
502.00 288.00 0.00 10.09 -3.61
503.00 288.00 0.00 10.11 -3.63
504.00 288.00 0.00 10.14 -3.66
505.00 288.00 0.00 10.16 -3.68
506.00 288.00 0.00 10.19 -3.71
507.00 288.00 0.00 10.21 -3.74
508.00 288.00 0.00 10.24 -3.76
509.00 288.00 0.00 10.26 -3.79
510.00 288.00 0.00 10.29 -3.81
511.00 288.00 0.00 10.31 -3.84
512.00 288.00 0.00 10.34 -3.86
513.00 288.00 0.00 10.36 -3.89
514.00 288.00 0.00 10.39 -3.91
515.00 288.00 0.00 10.41 -3.94
516.00 288.00 0.00 10.44 -3.96
517.00 288.00 0.00 10.46 -3.99
518.00 288.00 0.00 10.49 -4.02
519.00 288.00 0.00 10.51 -4.04
520.00 288.00 0.00 10.54 -4.06
521.00 288.00 0.00 10.56 -4.09
522.00 288.00 0.00 10.59 -4.11
523.00 288.00 0.00 10.61 -4.14
524.00 288.00 0.00 10.64 -4.16
525.00 288.00 0.00 10.66 -4.19
526.00 288.00 0.00 10.69 -4.21
527.00 288.00 0.00 10.71 -4.24
528.00 288.00 0.00 10.74 -4.26
529.00 288.00 0.00 10.76 -4.29
530.00 288.00 0.00 10.79 -4.31
531.00 288.00 0.00 10.81 -4.33
532.00 288.00 0.00 10.84 -4.36
533.00 288.00 0.00 10.86 -4.38
534.00 288.00 0.00 10.89 -4.41
535.00 288.00 0.00 10.91 -4.43
536.00 288.00 0.00 10.94 -4.45
537.00 288.00 0.00 10.96 -4.48
538.00 288.00 0.00 10.99 -4.50
539.00 288.00 0.00 11.01 -4.52
540.00 288.00 0.00 11.04 -4.55
541.00 288.00 0.00 11.06 -4.57
542.00 288.00 0.00 11.09 -4.59
543.00 288.00 0.00 11.11 -4.61
544.00 288.00 0.00 11.13 -4.63
545.00 288.00 0.00 11.16 -4.66
546.00 288.00 0.00 11.18 -4.68
547.00 288.00 0.00 11.21 -4.70
548.00 288.00 0.00 11.23 -4.72
549.00 288.00 0.00 11.25 -4.74
550.00 288.00 0.00 11.28 -4.76
551.00 288.00 0.00 11.30 -4.78
552.00 288.00 0.00 11.32 -4.80
553.00 288.00 0.00 11.34 -4.82
554.00 288.00 0.00 11.37 -4.84
555.00 288.00 0.00 11.39 -4.86
556.00 288.00 0.00 11.41 -4.88
557.00 288.00 0.00 11.43 -4.90
558.00 288.00 0.00 11.46 -4.92
559.00 288.00 0.00 11.48 -4.94
560.00 288.00 0.00 11.50 -4.96
561.00 288.00 0.00 11.52 -4.98
562.00 288.00 0.00 11.54 -5.00
563.00 288.00 0.00 11.57 -5.02
564.00 288.00 0.00 11.59 -5.03
565.00 288.00 0.00 11.61 -5.05
566.00 288.00 0.00 11.63 -5.07
567.00 288.00 0.00 11.65 -5.09
568.00 288.00 0.00 11.67 -5.10
569.00 288.00 0.00 11.69 -5.12
570.00 288.00 0.00 11.71 -5.14
571.00 288.00 0.00 11.73 -5.15
572.00 288.00 0.00 11.75 -5.17
573.00 288.00 0.00 11.77 -5.19
574.00 288.00 0.00 11.79 -5.20
575.00 288.00 0.00 11.81 -5.22
576.00 288.00 0.00 11.83 -5.24
577.00 288.00 0.00 11.85 -5.25
578.00 288.00 0.00 11.87 -5.27
579.00 288.00 0.00 11.89 -5.28
580.00 288.00 0.00 11.91 -5.30
581.00 288.00 0.00 11.93 -5.31
582.00 288.00 0.00 11.95 -5.33
583.00 288.00 0.00 11.97 -5.34
584.00 288.00 0.00 11.98 -5.36
585.00 288.00 0.00 12.00 -5.37
586.00 288.00 0.00 12.02 -5.39
587.00 288.00 0.00 12.04 -5.40
588.00 288.00 0.00 12.06 -5.41
589.00 288.00 0.00 12.08 -5.43
590.00 288.00 0.00 12.09 -5.44
591.00 288.00 0.00 12.11 -5.45
592.00 288.00 0.00 12.13 -5.47
593.00 288.00 0.00 12.15 -5.48
594.00 288.00 0.00 12.16 -5.49
595.00 288.00 0.00 12.18 -5.51
596.00 288.00 0.00 12.20 -5.52
597.00 288.00 0.00 12.21 -5.53
598.00 288.00 0.00 12.23 -5.54
599.00 288.00 0.00 12.25 -5.56
600.00 288.00 0.00 12.26 -5.57
601.00 288.00 0.00 12.28 -5.58
602.00 288.00 0.00 12.29 -5.59
603.00 288.00 0.00 12.31 -5.60
604.00 288.00 0.00 12.33 -5.62
605.00 288.00 0.00 12.34 -5.63
606.00 288.00 0.00 12.36 -5.64
607.00 288.00 0.00 12.37 -5.65
608.00 288.00 0.00 12.39 -5.66
609.00 288.00 0.00 12.40 -5.67
610.00 288.00 0.00 12.42 -5.68
611.00 288.00 0.00 12.43 -5.69
612.00 288.00 0.00 12.45 -5.70
613.00 288.00 0.00 12.46 -5.71
614.00 288.00 0.00 12.48 -5.72
615.00 288.00 0.00 12.49 -5.73
616.00 288.00 0.00 12.50 -5.74
617.00 288.00 0.00 12.52 -5.75
618.00 288.00 0.00 12.53 -5.76
619.00 288.00 0.00 12.55 -5.77
620.00 288.00 0.00 12.56 -5.78
621.00 288.00 0.00 12.57 -5.79
622.00 288.00 0.00 12.59 -5.80
623.00 288.00 0.00 12.60 -5.81
624.00 288.00 0.00 12.61 -5.82
625.00 288.00 0.00 12.63 -5.82
626.00 288.00 0.00 12.64 -5.83
627.00 288.00 0.00 12.65 -5.84
628.00 288.00 0.00 12.66 -5.85
629.00 288.00 0.00 12.68 -5.86
630.00 288.00 0.00 12.69 -5.87
631.00 288.00 0.00 12.70 -5.87
632.00 288.00 0.00 12.71 -5.88
633.00 288.00 0.00 12.72 -5.89
634.00 288.00 0.00 12.73 -5.90
635.00 288.00 0.00 12.75 -5.90
636.00 288.00 0.00 12.76 -5.91
637.00 288.00 0.00 12.77 -5.92
638.00 288.00 0.00 12.78 -5.93
639.00 288.00 0.00 12.79 -5.93
640.00 288.00 0.00 12.80 -5.94
641.00 288.00 0.00 12.81 -5.95
642.00 288.00 0.00 12.82 -5.95
643.00 288.00 0.00 12.83 -5.96
644.00 288.00 0.00 12.84 -5.97
645.00 288.00 0.00 12.85 -5.97
646.00 288.00 0.00 12.86 -5.98
647.00 288.00 0.00 12.87 -5.99
648.00 288.00 0.00 12.88 -5.99
649.00 288.00 0.00 12.89 -6.00
650.00 288.00 0.00 12.90 -6.00
651.00 288.00 0.00 12.91 -6.01
652.00 288.00 0.00 12.92 -6.02
653.00 288.00 0.00 12.93 -6.02
654.00 288.00 0.00 12.94 -6.03
655.00 288.00 0.00 12.95 -6.03
656.00 288.00 0.00 12.95 -6.04
657.00 288.00 0.00 12.96 -6.04
658.00 288.00 0.00 12.97 -6.05
659.00 288.00 0.00 12.98 -6.05
660.00 288.00 0.00 12.99 -6.06
661.00 288.00 0.00 13.00 -6.06
662.00 288.00 0.00 13.00 -6.07
663.00 288.00 0.00 13.01 -6.07
664.00 288.00 0.00 13.02 -6.08
665.00 288.00 0.00 13.03 -6.08
666.00 288.00 0.00 13.03 -6.08
667.00 288.00 0.00 13.04 -6.09
668.00 288.00 0.00 13.05 -6.09
669.00 288.00 0.00 13.05 -6.10
670.00 288.00 0.00 13.06 -6.10
671.00 288.00 0.00 13.07 -6.10
672.00 288.00 0.00 13.07 -6.11
673.00 288.00 0.00 13.08 -6.11
674.00 288.00 0.00 13.08 -6.11
675.00 288.00 0.00 13.09 -6.12
676.00 288.00 0.00 13.10 -6.12
677.00 288.00 0.00 13.10 -6.12
678.00 288.00 0.00 13.11 -6.13
679.00 288.00 0.00 13.11 -6.13
680.00 288.00 0.00 13.12 -6.13
681.00 288.00 0.00 13.12 -6.14
682.00 288.00 0.00 13.13 -6.14
683.00 288.00 0.00 13.13 -6.14
684.00 288.00 0.00 13.14 -6.15
685.00 288.00 0.00 13.14 -6.15
686.00 288.00 0.00 13.15 -6.15
687.00 288.00 0.00 13.15 -6.15
688.00 288.00 0.00 13.15 -6.16
689.00 288.00 0.00 13.16 -6.16
690.00 288.00 0.00 13.16 -6.16
691.00 288.00 0.00 13.17 -6.16
692.00 288.00 0.00 13.17 -6.16
693.00 288.00 0.00 13.17 -6.17
694.00 288.00 0.00 13.18 -6.17
695.00 288.00 0.00 13.18 -6.17
696.00 288.00 0.00 13.18 -6.17
697.00 288.00 0.00 13.18 -6.17
698.00 288.00 0.00 13.19 -6.17
699.00 288.00 0.00 13.19 -6.18
700.00 288.00 0.00 13.19 -6.18
701.00 288.00 0.00 13.19 -6.18
702.00 288.00 0.00 13.20 -6.18
703.00 288.00 0.00 13.20 -6.18
704.00 288.00 0.00 13.20 -6.18
705.00 288.00 0.00 13.20 -6.18
706.00 288.00 0.00 13.20 -6.18
707.00 288.00 0.00 13.21 -6.18
708.00 288.00 0.00 13.21 -6.18
709.00 288.00 0.00 13.21 -6.19
710.00 288.00 0.00 13.21 -6.19
711.00 288.00 0.00 13.21 -6.19
712.00 288.00 0.00 13.21 -6.19
713.00 288.00 0.00 13.21 -6.19
714.00 288.00 0.00 13.21 -6.19
715.00 288.00 0.00 13.21 -6.19
716.00 288.00 0.00 13.21 -6.19
717.00 288.00 0.00 13.21 -6.19
718.00 288.00 0.00 13.21 -6.19
719.00 288.00 0.00 13.21 -6.19
720.00 288.00 0.00 13.21 -6.19
721.00 288.00 0.00 13.21 -6.19
722.00 288.00 0.00 13.21 -6.19
723.00 288.00 0.00 13.21 -6.19
724.00 288.00 0.00 13.21 -6.19
725.00 288.00 0.00 13.21 -6.19
726.00 288.00 0.00 13.21 -6.19
727.00 288.00 0.00 13.21 -6.19
728.00 288.00 0.00 13.21 -6.19
729.00 288.00 0.00 13.21 -6.19
730.00 288.00 0.00 13.21 -6.19
731.00 288.00 0.00 13.21 -6.19
732.00 288.00 0.00 13.21 -6.19
733.00 288.00 0.00 13.21 -6.19
734.00 288.00 0.00 13.21 -6.19
735.00 288.00 0.00 13.21 -6.19
736.00 288.00 0.00 13.21 -6.19
737.00 288.00 0.00 13.21 -6.19
738.00 288.00 0.00 13.21 -6.19
739.00 288.00 0.00 13.21 -6.19
740.00 288.00 0.00 13.21 -6.19
741.00 288.00 0.00 13.21 -6.19
742.00 288.00 0.00 13.21 -6.19
743.00 288.00 0.00 13.21 -6.19
744.00 288.00 0.00 13.21 -6.19
745.00 288.00 0.00 13.21 -6.19
746.00 288.00 0.00 13.21 -6.19
747.00 288.00 0.00 13.21 -6.19
748.00 288.00 0.00 13.21 -6.19
749.00 288.00 0.00 13.21 -6.19
750.00 288.00 0.00 13.21 -6.19
751.00 288.00 0.00 13.21 -6.19
752.00 288.00 0.00 13.21 -6.19
753.00 288.00 0.00 13.21 -6.19
754.00 288.00 0.00 13.21 -6.19
755.00 288.00 0.00 13.21 -6.19
756.00 288.00 0.00 13.21 -6.19
757.00 288.00 0.00 13.21 -6.19
758.00 288.00 0.00 13.21 -6.19
759.00 288.00 0.00 13.21 -6.19
760.00 288.00 0.00 13.21 -6.19
761.00 288.00 0.00 13.21 -6.19
762.00 288.00 0.00 13.21 -6.19
763.00 288.00 0.00 13.21 -6.19
764.00 288.00 0.00 13.21 -6.19
765.00 288.00 0.00 13.21 -6.19
766.00 288.00 0.00 13.21 -6.19
767.00 288.00 0.00 13.21 -6.19
768.00 288.00 0.00 13.21 -6.19
769.00 288.00 0.00 13.21 -6.19
770.00 288.00 0.00 13.21 -6.19
771.00 288.00 0.00 13.21 -6.19
772.00 288.00 0.00 13.21 -6.19
773.00 288.00 0.00 13.21 -6.19
774.00 288.00 0.00 13.21 -6.19
775.00 288.00 0.00 13.21 -6.19
776.00 288.00 0.00 13.21 -6.19
777.00 288.00 0.00 13.21 -6.19
778.00 288.00 0.00 13.21 -6.19
779.00 288.00 0.00 13.21 -6.19
780.00 288.00 0.00 13.21 -6.19
781.00 288.00 0.00 13.21 -6.19
782.00 288.00 0.00 13.21 -6.19
783.00 288.00 0.00 13.21 -6.19
784.00 288.00 0.00 13.21 -6.19
785.00 288.00 0.00 13.21 -6.19
786.00 288.00 0.00 13.21 -6.19
787.00 288.00 0.00 13.21 -6.19
788.00 288.00 0.00 13.21 -6.19
789.00 288.00 0.00 13.21 -6.19
790.00 288.00 0.00 13.21 -6.19
791.00 288.00 0.00 13.21 -6.19
792.00 288.00 0.00 13.21 -6.19
793.00 288.00 0.00 13.21 -6.19
794.00 288.00 0.00 13.21 -6.19
795.00 288.00 0.00 13.21 -6.19
796.00 288.00 0.00 13.21 -6.19
797.00 288.00 0.00 13.21 -6.19
798.00 288.00 0.00 13.21 -6.19
799.00 288.00 0.00 13.21 -6.19
800.00 288.00 0.00 13.21 -6.19
801.00 288.00 0.00 13.21 -6.19
802.00 288.00 0.00 13.21 -6.19
803.00 288.00 0.00 13.21 -6.19
804.00 288.00 0.00 13.21 -6.19
805.00 288.00 0.00 13.21 -6.19
806.00 288.00 0.00 13.21 -6.19
807.00 288.00 0.00 13.21 -6.19
808.00 288.00 0.00 13.21 -6.19
809.00 288.00 0.00 13.21 -6.19
810.00 288.00 0.00 13.21 -6.19
811.00 288.00 0.00 13.21 -6.19
812.00 288.00 0.00 13.21 -6.19
813.00 288.00 0.00 13.21 -6.19
814.00 288.00 0.00 13.21 -6.19
815.00 288.00 0.00 13.21 -6.19
816.00 288.00 0.00 13.21 -6.19
817.00 288.00 0.00 13.21 -6.19
818.00 288.00 0.00 13.21 -6.19
819.00 288.00 0.00 13.21 -6.19
820.00 288.00 0.00 13.21 -6.19
821.00 288.00 0.00 13.21 -6.19
822.00 288.00 0.00 13.21 -6.19
823.00 288.00 0.00 13.21 -6.19
824.00 288.00 0.00 13.21 -6.19
825.00 288.00 0.00 13.21 -6.19
826.00 288.00 0.00 13.21 -6.19
827.00 288.00 0.00 13.21 -6.19
828.00 288.00 0.00 13.21 -6.19
829.00 288.00 0.00 13.21 -6.19
830.00 288.00 0.00 13.21 -6.19
831.00 288.00 0.00 13.21 -6.19
