1000.00 288.00 00.00
0.00 288.00 0.00 2.65 2.69
1.00 288.00 0.00 2.65 2.69
2.00 288.00 0.00 2.65 2.69
3.00 288.00 0.00 2.65 2.69
4.00 288.00 0.00 2.65 2.69
5.00 288.00 0.00 2.65 2.69
6.00 288.00 0.00 2.65 2.69
7.00 288.00 0.00 2.65 2.69
8.00 288.00 0.00 2.65 2.69
9.00 288.00 0.00 2.65 2.69
10.00 288.00 0.00 2.65 2.69
11.00 288.00 0.00 2.65 2.69
12.00 288.00 0.00 2.65 2.69
13.00 288.00 0.00 2.65 2.69
14.00 288.00 0.00 2.65 2.69
15.00 288.00 0.00 2.65 2.69
16.00 288.00 0.00 2.65 2.69
17.00 288.00 0.00 2.65 2.69
18.00 288.00 0.00 2.65 2.69
19.00 288.00 0.00 2.65 2.69
20.00 288.00 0.00 2.65 2.69
21.00 288.00 0.00 2.65 2.69
22.00 288.00 0.00 2.65 2.69
23.00 288.00 0.00 2.65 2.69
24.00 288.00 0.00 2.65 2.69
25.00 288.00 0.00 2.65 2.69
26.00 288.00 0.00 2.65 2.69
27.00 288.00 0.00 2.65 2.69
28.00 288.00 0.00 2.65 2.69
29.00 288.00 0.00 2.65 2.69
30.00 288.00 0.00 2.65 2.69
31.00 288.00 0.00 2.65 2.69
32.00 288.00 0.00 2.65 2.69
33.00 288.00 0.00 2.65 2.69
34.00 288.00 0.00 2.65 2.69
35.00 288.00 0.00 2.65 2.69
36.00 288.00 0.00 2.65 2.69
37.00 288.00 0.00 2.65 2.69
38.00 288.00 0.00 2.65 2.69
39.00 288.00 0.00 2.65 2.69
40.00 288.00 0.00 2.65 2.69
41.00 288.00 0.00 2.65 2.69
42.00 288.00 0.00 2.65 2.69
43.00 288.00 0.00 2.65 2.69
44.00 288.00 0.00 2.65 2.69
45.00 288.00 0.00 2.65 2.69
46.00 288.00 0.00 2.65 2.69
47.00 288.00 0.00 2.65 2.69
48.00 288.00 0.00 2.65 2.69
49.00 288.00 0.00 2.65 2.69
50.00 288.00 0.00 2.65 2.69
51.00 288.00 0.00 2.65 2.69
52.00 288.00 0.00 2.65 2.69
53.00 288.00 0.00 2.65 2.69
54.00 288.00 0.00 2.65 2.69
55.00 288.00 0.00 2.65 2.69
56.00 288.00 0.00 2.65 2.69
57.00 288.00 0.00 2.65 2.69
58.00 288.00 0.00 2.65 2.69
59.00 288.00 0.00 2.65 2.69
60.00 288.00 0.00 2.65 2.69
61.00 288.00 0.00 2.65 2.69
62.00 288.00 0.00 2.65 2.69
63.00 288.00 0.00 2.65 2.69
64.00 288.00 0.00 2.65 2.69
65.00 288.00 0.00 2.65 2.69
66.00 288.00 0.00 2.65 2.69
67.00 288.00 0.00 2.65 2.69
68.00 288.00 0.00 2.65 2.69
69.00 288.00 0.00 2.65 2.69
70.00 288.00 0.00 2.65 2.69
71.00 288.00 0.00 2.65 2.69
72.00 288.00 0.00 2.65 2.69
73.00 288.00 0.00 2.65 2.69
74.00 288.00 0.00 2.65 2.69
75.00 288.00 0.00 2.65 2.69
76.00 288.00 0.00 2.65 2.69
77.00 288.00 0.00 2.65 2.69
78.00 288.00 0.00 2.65 2.69
79.00 288.00 0.00 2.65 2.69
80.00 288.00 0.00 2.65 2.69
81.00 288.00 0.00 2.65 2.69
82.00 288.00 0.00 2.65 2.69
83.00 288.00 0.00 2.65 2.69
84.00 288.00 0.00 2.65 2.69
85.00 288.00 0.00 2.65 2.69
86.00 288.00 0.00 2.65 2.69
87.00 288.00 0.00 2.65 2.69
88.00 288.00 0.00 2.65 2.69
89.00 288.00 0.00 2.65 2.69
90.00 288.00 0.00 2.65 2.69
91.00 288.00 0.00 2.65 2.69
92.00 288.00 0.00 2.65 2.69
93.00 288.00 0.00 2.65 2.69
94.00 288.00 0.00 2.65 2.69
95.00 288.00 0.00 2.65 2.69
96.00 288.00 0.00 2.65 2.69
97.00 288.00 0.00 2.65 2.69
98.00 288.00 0.00 2.65 2.69
99.00 288.00 0.00 2.65 2.69
100.00 288.00 0.00 2.65 2.69
101.00 288.00 0.00 2.65 2.69
102.00 288.00 0.00 2.65 2.69
103.00 288.00 0.00 2.65 2.69
104.00 288.00 0.00 2.65 2.69
105.00 288.00 0.00 2.65 2.69
106.00 288.00 0.00 2.65 2.69
107.00 288.00 0.00 2.65 2.69
108.00 288.00 0.00 2.65 2.69
109.00 288.00 0.00 2.65 2.69
110.00 288.00 0.00 2.65 2.69
111.00 288.00 0.00 2.65 2.69
112.00 288.00 0.00 2.65 2.69
113.00 288.00 0.00 2.65 2.69
114.00 288.00 0.00 2.65 2.69
115.00 288.00 0.00 2.65 2.69
116.00 288.00 0.00 2.65 2.69
117.00 288.00 0.00 2.65 2.69
118.00 288.00 0.00 2.65 2.69
119.00 288.00 0.00 2.65 2.69
120.00 288.00 0.00 2.65 2.69
121.00 288.00 0.00 2.65 2.69
122.00 288.00 0.00 2.65 2.69
123.00 288.00 0.00 2.65 2.69
124.00 288.00 0.00 2.65 2.69
125.00 288.00 0.00 2.65 2.69
126.00 288.00 0.00 2.66 2.69
127.00 288.00 0.00 2.66 2.69
128.00 288.00 0.00 2.66 2.69
129.00 288.00 0.00 2.66 2.68
130.00 288.00 0.00 2.66 2.68
131.00 288.00 0.00 2.67 2.68
132.00 288.00 0.00 2.67 2.68
133.00 288.00 0.00 2.67 2.68
134.00 288.00 0.00 2.67 2.68
135.00 288.00 0.00 2.68 2.68
136.00 288.00 0.00 2.68 2.67
137.00 288.00 0.00 2.68 2.67
138.00 288.00 0.00 2.69 2.67
139.00 288.00 0.00 2.69 2.67
140.00 288.00 0.00 2.69 2.67
141.00 288.00 0.00 2.70 2.66
142.00 288.00 0.00 2.70 2.66
143.00 288.00 0.00 2.70 2.66
144.00 288.00 0.00 2.71 2.66
145.00 288.00 0.00 2.71 2.65
146.00 288.00 0.00 2.72 2.65
147.00 288.00 0.00 2.72 2.65
148.00 288.00 0.00 2.73 2.65
149.00 288.00 0.00 2.73 2.64
150.00 288.00 0.00 2.73 2.64
151.00 288.00 0.00 2.74 2.64
152.00 288.00 0.00 2.74 2.63
153.00 288.00 0.00 2.75 2.63
154.00 288.00 0.00 2.76 2.63
155.00 288.00 0.00 2.76 2.63
156.00 288.00 0.00 2.77 2.62
157.00 288.00 0.00 2.77 2.62
158.00 288.00 0.00 2.78 2.61
159.00 288.00 0.00 2.78 2.61
160.00 288.00 0.00 2.79 2.61
161.00 288.00 0.00 2.80 2.60
162.00 288.00 0.00 2.80 2.60
163.00 288.00 0.00 2.81 2.60
164.00 288.00 0.00 2.82 2.59
165.00 288.00 0.00 2.82 2.59
166.00 288.00 0.00 2.83 2.58
167.00 288.00 0.00 2.84 2.58
168.00 288.00 0.00 2.85 2.57
169.00 288.00 0.00 2.85 2.57
170.00 288.00 0.00 2.86 2.57
171.00 288.00 0.00 2.87 2.56
172.00 288.00 0.00 2.88 2.56
173.00 288.00 0.00 2.89 2.55
174.00 288.00 0.00 2.89 2.55
175.00 288.00 0.00 2.90 2.54
176.00 288.00 0.00 2.91 2.54
177.00 288.00 0.00 2.92 2.53
178.00 288.00 0.00 2.93 2.53
179.00 288.00 0.00 2.94 2.52
180.00 288.00 0.00 2.95 2.52
181.00 288.00 0.00 2.95 2.51
182.00 288.00 0.00 2.96 2.50
183.00 288.00 0.00 2.97 2.50
184.00 288.00 0.00 2.98 2.49
185.00 288.00 0.00 2.99 2.49
186.00 288.00 0.00 3.00 2.48
187.00 288.00 0.00 3.01 2.48
188.00 288.00 0.00 3.02 2.47
189.00 288.00 0.00 3.03 2.46
190.00 288.00 0.00 3.04 2.46
191.00 288.00 0.00 3.05 2.45
192.00 288.00 0.00 3.06 2.44
193.00 288.00 0.00 3.08 2.44
194.00 288.00 0.00 3.09 2.43
195.00 288.00 0.00 3.10 2.42
196.00 288.00 0.00 3.11 2.42
197.00 288.00 0.00 3.12 2.41
198.00 288.00 0.00 3.13 2.40
199.00 288.00 0.00 3.14 2.40
200.00 288.00 0.00 3.16 2.39
201.00 288.00 0.00 3.17 2.38
202.00 288.00 0.00 3.18 2.38
203.00 288.00 0.00 3.19 2.37
204.00 288.00 0.00 3.20 2.36
205.00 288.00 0.00 3.22 2.35
206.00 288.00 0.00 3.23 2.35
207.00 288.00 0.00 3.24 2.34
208.00 288.00 0.00 3.26 2.33
209.00 288.00 0.00 3.27 2.32
210.00 288.00 0.00 3.28 2.31
211.00 288.00 0.00 3.29 2.31
212.00 288.00 0.00 3.31 2.30
213.00 288.00 0.00 3.32 2.29
214.00 288.00 0.00 3.34 2.28
215.00 288.00 0.00 3.35 2.27
216.00 288.00 0.00 3.36 2.26
217.00 288.00 0.00 3.38 2.26
218.00 288.00 0.00 3.39 2.25
219.00 288.00 0.00 3.41 2.24
220.00 288.00 0.00 3.42 2.23
221.00 288.00 0.00 3.44 2.22
222.00 288.00 0.00 3.45 2.21
223.00 288.00 0.00 3.47 2.20
224.00 288.00 0.00 3.48 2.19
225.00 288.00 0.00 3.50 2.18
226.00 288.00 0.00 3.51 2.17
227.00 288.00 0.00 3.53 2.17
228.00 288.00 0.00 3.54 2.16
229.00 288.00 0.00 3.56 2.15
230.00 288.00 0.00 3.57 2.14
231.00 288.00 0.00 3.59 2.13
232.00 288.00 0.00 3.61 2.12
233.00 288.00 0.00 3.62 2.11
234.00 288.00 0.00 3.64 2.10
235.00 288.00 0.00 3.66 2.09
236.00 288.00 0.00 3.67 2.08
237.00 288.00 0.00 3.69 2.07
238.00 288.00 0.00 3.71 2.06
239.00 288.00 0.00 3.73 2.04
240.00 288.00 0.00 3.74 2.03
241.00 288.00 0.00 3.76 2.02
242.00 288.00 0.00 3.78 2.01
243.00 288.00 0.00 3.80 2.00
244.00 288.00 0.00 3.81 1.99
245.00 288.00 0.00 3.83 1.98
246.00 288.00 0.00 3.85 1.97
247.00 288.00 0.00 3.87 1.96
248.00 288.00 0.00 3.89 1.95
249.00 288.00 0.00 3.91 1.93
250.00 288.00 0.00 3.92 1.92
251.00 288.00 0.00 3.94 1.91
252.00 288.00 0.00 3.96 1.90
253.00 288.00 0.00 3.98 1.89
254.00 288.00 0.00 4.00 1.88
255.00 288.00 0.00 4.02 1.86
256.00 288.00 0.00 4.04 1.85
257.00 288.00 0.00 4.06 1.84
258.00 288.00 0.00 4.08 1.83
259.00 288.00 0.00 4.10 1.82
260.00 288.00 0.00 4.12 1.80
261.00 288.00 0.00 4.14 1.79
262.00 288.00 0.00 4.16 1.78
263.00 288.00 0.00 4.18 1.77
264.00 288.00 0.00 4.20 1.75
265.00 288.00 0.00 4.22 1.74
266.00 288.00 0.00 4.24 1.73
267.00 288.00 0.00 4.26 1.71
268.00 288.00 0.00 4.29 1.70
269.00 288.00 0.00 4.31 1.69
270.00 288.00 0.00 4.33 1.67
271.00 288.00 0.00 4.35 1.66
272.00 288.00 0.00 4.37 1.65
273.00 288.00 0.00 4.39 1.63
274.00 288.00 0.00 4.42 1.62
275.00 288.00 0.00 4.44 1.61
276.00 288.00 0.00 4.46 1.59
277.00 288.00 0.00 4.48 1.58
278.00 288.00 0.00 4.51 1.56
279.00 288.00 0.00 4.53 1.55
280.00 288.00 0.00 4.55 1.54
281.00 288.00 0.00 4.57 1.52
282.00 288.00 0.00 4.60 1.51
283.00 288.00 0.00 4.62 1.49
284.00 288.00 0.00 4.64 1.48
285.00 288.00 0.00 4.67 1.46
286.00 288.00 0.00 4.69 1.45
287.00 288.00 0.00 4.72 1.43
288.00 288.00 0.00 4.74 1.42
289.00 288.00 0.00 4.76 1.40
290.00 288.00 0.00 4.79 1.39
291.00 288.00 0.00 4.81 1.37
292.00 288.00 0.00 4.84 1.36
293.00 288.00 0.00 4.86 1.34
294.00 288.00 0.00 4.89 1.33
295.00 288.00 0.00 4.91 1.31
296.00 288.00 0.00 4.94 1.29
297.00 288.00 0.00 4.96 1.28
298.00 288.00 0.00 4.99 1.26
299.00 288.00 0.00 5.01 1.25
300.00 288.00 0.00 5.04 1.23
301.00 288.00 0.00 5.06 1.22
302.00 288.00 0.00 5.09 1.20
303.00 288.00 0.00 5.11 1.19
304.00 288.00 0.00 5.14 1.17
305.00 288.00 0.00 5.16 1.15
306.00 288.00 0.00 5.19 1.14
307.00 288.00 0.00 5.21 1.12
308.00 288.00 0.00 5.24 1.11
309.00 288.00 0.00 5.26 1.09
310.00 288.00 0.00 5.29 1.08
311.00 288.00 0.00 5.31 1.06
312.00 288.00 0.00 5.34 1.04
313.00 288.00 0.00 5.36 1.03
314.00 288.00 0.00 5.39 1.01
315.00 288.00 0.00 5.41 1.00
316.00 288.00 0.00 5.44 0.98
317.00 288.00 0.00 5.46 0.97
318.00 288.00 0.00 5.49 0.95
319.00 288.00 0.00 5.51 0.93
320.00 288.00 0.00 5.54 0.92
321.00 288.00 0.00 5.56 0.90
322.00 288.00 0.00 5.59 0.89
323.00 288.00 0.00 5.61 0.87
324.00 288.00 0.00 5.64 0.86
325.00 288.00 0.00 5.66 0.84
326.00 288.00 0.00 5.69 0.82
327.00 288.00 0.00 5.71 0.81
328.00 288.00 0.00 5.74 0.79
329.00 288.00 0.00 5.76 0.78
330.00 288.00 0.00 5.79 0.76
331.00 288.00 0.00 5.81 0.75
332.00 288.00 0.00 5.84 0.73
333.00 288.00 0.00 5.86 0.71
334.00 288.00 0.00 5.89 0.70
335.00 288.00 0.00 5.91 0.68
336.00 288.00 0.00 5.94 0.67
337.00 288.00 0.00 5.96 0.65
338.00 288.00 0.00 5.99 0.63
339.00 288.00 0.00 6.01 0.62
340.00 288.00 0.00 6.04 0.60
341.00 288.00 0.00 6.06 0.59
342.00 288.00 0.00 6.09 0.57
343.00 288.00 0.00 6.11 0.56
344.00 288.00 0.00 6.14 0.54
345.00 288.00 0.00 6.16 0.52
346.00 288.00 0.00 6.19 0.51
347.00 288.00 0.00 6.21 0.49
348.00 288.00 0.00 6.24 0.48
349.00 288.00 0.00 6.26 0.46
350.00 288.00 0.00 6.29 0.44
351.00 288.00 0.00 6.31 0.43
352.00 288.00 0.00 6.34 0.41
353.00 288.00 0.00 6.36 0.40
354.00 288.00 0.00 6.39 0.38
355.00 288.00 0.00 6.41 0.37
356.00 288.00 0.00 6.44 0.35
357.00 288.00 0.00 6.46 0.33
358.00 288.00 0.00 6.49 0.32
359.00 288.00 0.00 6.51 0.30
360.00 288.00 0.00 6.54 0.29
361.00 288.00 0.00 6.56 0.27
362.00 288.00 0.00 6.59 0.25
363.00 288.00 0.00 6.61 0.24
364.00 288.00 0.00 6.64 0.22
365.00 288.00 0.00 6.66 0.21
366.00 288.00 0.00 6.69 0.19
367.00 288.00 0.00 6.71 0.17
368.00 288.00 0.00 6.74 0.16
369.00 288.00 0.00 6.76 0.14
370.00 288.00 0.00 6.79 0.13
371.00 288.00 0.00 6.81 0.11
372.00 288.00 0.00 6.84 0.10
373.00 288.00 0.00 6.86 0.08
374.00 288.00 0.00 6.89 0.06
375.00 288.00 0.00 6.91 0.05
376.00 288.00 0.00 6.94 0.03
377.00 288.00 0.00 6.96 0.02
378.00 288.00 0.00 6.99 0.00
379.00 288.00 0.00 7.01 -0.02
380.00 288.00 0.00 7.04 -0.03
381.00 288.00 0.00 7.06 -0.05
382.00 288.00 0.00 7.09 -0.06
383.00 288.00 0.00 7.11 -0.08
384.00 288.00 0.00 7.14 -0.10
385.00 288.00 0.00 7.16 -0.11
386.00 288.00 0.00 7.19 -0.13
387.00 288.00 0.00 7.21 -0.14
388.00 288.00 0.00 7.24 -0.16
389.00 288.00 0.00 7.26 -0.17
390.00 288.00 0.00 7.29 -0.19
391.00 288.00 0.00 7.31 -0.21
392.00 288.00 0.00 7.34 -0.22
393.00 288.00 0.00 7.36 -0.24
394.00 288.00 0.00 7.39 -0.25
395.00 288.00 0.00 7.41 -0.27
396.00 288.00 0.00 7.44 -0.29
397.00 288.00 0.00 7.46 -0.30
398.00 288.00 0.00 7.49 -0.32
399.00 288.00 0.00 7.51 -0.33
400.00 288.00 0.00 7.54 -0.35
401.00 288.00 0.00 7.56 -0.37
402.00 288.00 0.00 7.59 -0.38
403.00 288.00 0.00 7.61 -0.40
404.00 288.00 0.00 7.64 -0.41
405.00 288.00 0.00 7.66 -0.43
406.00 288.00 0.00 7.69 -0.44
407.00 288.00 0.00 7.71 -0.46
408.00 288.00 0.00 7.74 -0.48
409.00 288.00 0.00 7.76 -0.49
410.00 288.00 0.00 7.79 -0.51
411.00 288.00 0.00 7.81 -0.52
412.00 288.00 0.00 7.84 -0.54
413.00 288.00 0.00 7.86 -0.56
414.00 288.00 0.00 7.89 -0.57
415.00 288.00 0.00 7.91 -0.59
416.00 288.00 0.00 7.94 -0.60
417.00 288.00 0.00 7.96 -0.62
418.00 288.00 0.00 7.99 -0.63
419.00 288.00 0.00 8.01 -0.65
420.00 288.00 0.00 8.04 -0.67
421.00 288.00 0.00 8.06 -0.68
422.00 288.00 0.00 8.09 -0.70
423.00 288.00 0.00 8.11 -0.71
424.00 288.00 0.00 8.14 -0.73
425.00 288.00 0.00 8.16 -0.75
426.00 288.00 0.00 8.19 -0.76
427.00 288.00 0.00 8.21 -0.78
428.00 288.00 0.00 8.24 -0.79
429.00 288.00 0.00 8.26 -0.81
430.00 288.00 0.00 8.29 -0.82
431.00 288.00 0.00 8.31 -0.84
432.00 288.00 0.00 8.34 -0.86
433.00 288.00 0.00 8.36 -0.87
434.00 288.00 0.00 8.39 -0.89
435.00 288.00 0.00 8.41 -0.90
436.00 288.00 0.00 8.44 -0.92
437.00 288.00 0.00 8.46 -0.93
438.00 288.00 0.00 8.49 -0.95
439.00 288.00 0.00 8.51 -0.97
440.00 288.00 0.00 8.54 -0.98
441.00 288.00 0.00 8.56 -1.00
442.00 288.00 0.00 8.59 -1.01
443.00 288.00 0.00 8.61 -1.03
444.00 288.00 0.00 8.64 -1.04
445.00 288.00 0.00 8.66 -1.06
446.00 288.00 0.00 8.69 -1.08
447.00 288.00 0.00 8.71 -1.09
448.00 288.00 0.00 8.74 -1.11
449.00 288.00 0.00 8.76 -1.12
450.00 288.00 0.00 8.79 -1.14
451.00 288.00 0.00 8.81 -1.15
452.00 288.00 0.00 8.84 -1.17
453.00 288.00 0.00 8.86 -1.19
454.00 288.00 0.00 8.89 -1.20
455.00 288.00 0.00 8.91 -1.22
456.00 288.00 0.00 8.94 -1.23
457.00 288.00 0.00 8.96 -1.25
458.00 288.00 0.00 8.99 -1.26
459.00 288.00 0.00 9.01 -1.28
460.00 288.00 0.00 9.04 -1.29
461.00 288.00 0.00 9.06 -1.31
462.00 288.00 0.00 9.09 -1.33
463.00 288.00 0.00 9.11 -1.34
464.00 288.00 0.00 9.14 -1.36
465.00 288.00 0.00 9.16 -1.37
466.00 288.00 0.00 9.19 -1.39
467.00 288.00 0.00 9.21 -1.40
468.00 288.00 0.00 9.24 -1.42
469.00 288.00 0.00 9.26 -1.43
470.00 288.00 0.00 9.28 -1.45
471.00 288.00 0.00 9.31 -1.46
472.00 288.00 0.00 9.33 -1.48
473.00 288.00 0.00 9.36 -1.49
474.00 288.00 0.00 9.38 -1.51
475.00 288.00 0.00 9.40 -1.52
476.00 288.00 0.00 9.43 -1.54
477.00 288.00 0.00 9.45 -1.55
478.00 288.00 0.00 9.47 -1.56
479.00 288.00 0.00 9.49 -1.58
480.00 288.00 0.00 9.52 -1.59
481.00 288.00 0.00 9.54 -1.61
482.00 288.00 0.00 9.56 -1.62
483.00 288.00 0.00 9.58 -1.63
484.00 288.00 0.00 9.61 -1.65
485.00 288.00 0.00 9.63 -1.66
486.00 288.00 0.00 9.65 -1.67
487.00 288.00 0.00 9.67 -1.69
488.00 288.00 0.00 9.69 -1.70
489.00 288.00 0.00 9.71 -1.71
490.00 288.00 0.00 9.74 -1.73
491.00 288.00 0.00 9.76 -1.74
492.00 288.00 0.00 9.78 -1.75
493.00 288.00 0.00 9.80 -1.77
494.00 288.00 0.00 9.82 -1.78
495.00 288.00 0.00 9.84 -1.79
496.00 288.00 0.00 9.86 -1.80
497.00 288.00 0.00 9.88 -1.82
498.00 288.00 0.00 9.90 -1.83
499.00 288.00 0.00 9.92 -1.84
500.00 288.00 0.00 9.94 -1.85
501.00 288.00 0.00 9.96 -1.86
502.00 288.00 0.00 9.98 -1.88
503.00 288.00 0.00 10.00 -1.89
504.00 288.00 0.00 10.02 -1.90
505.00 288.00 0.00 10.04 -1.91
506.00 288.00 0.00 10.06 -1.92
507.00 288.00 0.00 10.08 -1.93
508.00 288.00 0.00 10.09 -1.95
509.00 288.00 0.00 10.11 -1.96
510.00 288.00 0.00 10.13 -1.97
511.00 288.00 0.00 10.15 -1.98
512.00 288.00 0.00 10.17 -1.99
513.00 288.00 0.00 10.19 -2.00
514.00 288.00 0.00 10.20 -2.01
515.00 288.00 0.00 10.22 -2.02
516.00 288.00 0.00 10.24 -2.03
517.00 288.00 0.00 10.26 -2.04
518.00 288.00 0.00 10.27 -2.06
519.00 288.00 0.00 10.29 -2.07
520.00 288.00 0.00 10.31 -2.08
521.00 288.00 0.00 10.33 -2.09
522.00 288.00 0.00 10.34 -2.10
523.00 288.00 0.00 10.36 -2.11
524.00 288.00 0.00 10.38 -2.12
525.00 288.00 0.00 10.39 -2.13
526.00 288.00 0.00 10.41 -2.14
527.00 288.00 0.00 10.43 -2.15
528.00 288.00 0.00 10.44 -2.16
529.00 288.00 0.00 10.46 -2.17
530.00 288.00 0.00 10.47 -2.17
531.00 288.00 0.00 10.49 -2.18
532.00 288.00 0.00 10.50 -2.19
533.00 288.00 0.00 10.52 -2.20
534.00 288.00 0.00 10.53 -2.21
535.00 288.00 0.00 10.55 -2.22
536.00 288.00 0.00 10.56 -2.23
537.00 288.00 0.00 10.58 -2.24
538.00 288.00 0.00 10.59 -2.25
539.00 288.00 0.00 10.61 -2.26
540.00 288.00 0.00 10.62 -2.26
541.00 288.00 0.00 10.64 -2.27
542.00 288.00 0.00 10.65 -2.28
543.00 288.00 0.00 10.66 -2.29
544.00 288.00 0.00 10.68 -2.30
545.00 288.00 0.00 10.69 -2.31
546.00 288.00 0.00 10.71 -2.31
547.00 288.00 0.00 10.72 -2.32
548.00 288.00 0.00 10.73 -2.33
549.00 288.00 0.00 10.74 -2.34
550.00 288.00 0.00 10.76 -2.35
551.00 288.00 0.00 10.77 -2.35
552.00 288.00 0.00 10.78 -2.36
553.00 288.00 0.00 10.80 -2.37
554.00 288.00 0.00 10.81 -2.38
555.00 288.00 0.00 10.82 -2.38
556.00 288.00 0.00 10.83 -2.39
557.00 288.00 0.00 10.84 -2.40
558.00 288.00 0.00 10.86 -2.40
559.00 288.00 0.00 10.87 -2.41
560.00 288.00 0.00 10.88 -2.42
561.00 288.00 0.00 10.89 -2.42
562.00 288.00 0.00 10.90 -2.43
563.00 288.00 0.00 10.91 -2.44
564.00 288.00 0.00 10.92 -2.44
565.00 288.00 0.00 10.94 -2.45
566.00 288.00 0.00 10.95 -2.46
567.00 288.00 0.00 10.96 -2.46
568.00 288.00 0.00 10.97 -2.47
569.00 288.00 0.00 10.98 -2.48
570.00 288.00 0.00 10.99 -2.48
571.00 288.00 0.00 11.00 -2.49
572.00 288.00 0.00 11.01 -2.49
573.00 288.00 0.00 11.02 -2.50
574.00 288.00 0.00 11.03 -2.50
575.00 288.00 0.00 11.04 -2.51
576.00 288.00 0.00 11.05 -2.52
577.00 288.00 0.00 11.05 -2.52
578.00 288.00 0.00 11.06 -2.53
579.00 288.00 0.00 11.07 -2.53
580.00 288.00 0.00 11.08 -2.54
581.00 288.00 0.00 11.09 -2.54
582.00 288.00 0.00 11.10 -2.55
583.00 288.00 0.00 11.11 -2.55
584.00 288.00 0.00 11.11 -2.56
585.00 288.00 0.00 11.12 -2.56
586.00 288.00 0.00 11.13 -2.57
587.00 288.00 0.00 11.14 -2.57
588.00 288.00 0.00 11.15 -2.57
589.00 288.00 0.00 11.15 -2.58
590.00 288.00 0.00 11.16 -2.58
591.00 288.00 0.00 11.17 -2.59
592.00 288.00 0.00 11.18 -2.59
593.00 288.00 0.00 11.18 -2.60
594.00 288.00 0.00 11.19 -2.60
595.00 288.00 0.00 11.20 -2.60
596.00 288.00 0.00 11.20 -2.61
597.00 288.00 0.00 11.21 -2.61
598.00 288.00 0.00 11.22 -2.61
599.00 288.00 0.00 11.22 -2.62
600.00 288.00 0.00 11.23 -2.62
601.00 288.00 0.00 11.23 -2.63
602.00 288.00 0.00 11.24 -2.63
603.00 288.00 0.00 11.24 -2.63
604.00 288.00 0.00 11.25 -2.63
605.00 288.00 0.00 11.26 -2.64
606.00 288.00 0.00 11.26 -2.64
607.00 288.00 0.00 11.27 -2.64
608.00 288.00 0.00 11.27 -2.65
609.00 288.00 0.00 11.27 -2.65
610.00 288.00 0.00 11.28 -2.65
611.00 288.00 0.00 11.28 -2.65
612.00 288.00 0.00 11.29 -2.66
613.00 288.00 0.00 11.29 -2.66
614.00 288.00 0.00 11.30 -2.66
615.00 288.00 0.00 11.30 -2.66
616.00 288.00 0.00 11.30 -2.67
617.00 288.00 0.00 11.31 -2.67
618.00 288.00 0.00 11.31 -2.67
619.00 288.00 0.00 11.31 -2.67
620.00 288.00 0.00 11.32 -2.67
621.00 288.00 0.00 11.32 -2.68
622.00 288.00 0.00 11.32 -2.68
623.00 288.00 0.00 11.33 -2.68
624.00 288.00 0.00 11.33 -2.68
625.00 288.00 0.00 11.33 -2.68
626.00 288.00 0.00 11.33 -2.68
627.00 288.00 0.00 11.34 -2.68
628.00 288.00 0.00 11.34 -2.69
629.00 288.00 0.00 11.34 -2.69
630.00 288.00 0.00 11.34 -2.69
631.00 288.00 0.00 11.34 -2.69
632.00 288.00 0.00 11.35 -2.69
633.00 288.00 0.00 11.35 -2.69
634.00 288.00 0.00 11.35 -2.69
635.00 288.00 0.00 11.35 -2.69
636.00 288.00 0.00 11.35 -2.69
637.00 288.00 0.00 11.35 -2.69
638.00 288.00 0.00 11.35 -2.69
639.00 288.00 0.00 11.35 -2.69
640.00 288.00 0.00 11.35 -2.69
641.00 288.00 0.00 11.35 -2.69
642.00 288.00 0.00 11.35 -2.69
643.00 288.00 0.00 11.35 -2.69
644.00 288.00 0.00 11.35 -2.69
645.00 288.00 0.00 11.35 -2.69
646.00 288.00 0.00 11.35 -2.69
647.00 288.00 0.00 11.35 -2.69
648.00 288.00 0.00 11.35 -2.69
649.00 288.00 0.00 11.35 -2.69
650.00 288.00 0.00 11.35 -2.69
651.00 288.00 0.00 11.35 -2.69
652.00 288.00 0.00 11.35 -2.69
653.00 288.00 0.00 11.35 -2.69
654.00 288.00 0.00 11.35 -2.69
655.00 288.00 0.00 11.35 -2.69
656.00 288.00 0.00 11.35 -2.69
657.00 288.00 0.00 11.35 -2.69
658.00 288.00 0.00 11.35 -2.69
659.00 288.00 0.00 11.35 -2.69
660.00 288.00 0.00 11.35 -2.69
661.00 288.00 0.00 11.35 -2.69
662.00 288.00 0.00 11.35 -2.69
663.00 288.00 0.00 11.35 -2.69
664.00 288.00 0.00 11.35 -2.69
665.00 288.00 0.00 11.35 -2.69
666.00 288.00 0.00 11.35 -2.69
667.00 288.00 0.00 11.35 -2.69
668.00 288.00 0.00 11.35 -2.69
669.00 288.00 0.00 11.35 -2.69
670.00 288.00 0.00 11.35 -2.69
671.00 288.00 0.00 11.35 -2.69
672.00 288.00 0.00 11.35 -2.69
673.00 288.00 0.00 11.35 -2.69
674.00 288.00 0.00 11.35 -2.69
675.00 288.00 0.00 11.35 -2.69
676.00 288.00 0.00 11.35 -2.69
677.00 288.00 0.00 11.35 -2.69
678.00 288.00 0.00 11.35 -2.69
679.00 288.00 0.00 11.35 -2.69
680.00 288.00 0.00 11.35 -2.69
681.00 288.00 0.00 11.35 -2.69
682.00 288.00 0.00 11.35 -2.69
683.00 288.00 0.00 11.35 -2.69
684.00 288.00 0.00 11.35 -2.69
685.00 288.00 0.00 11.35 -2.69
686.00 288.00 0.00 11.35 -2.69
687.00 288.00 0.00 11.35 -2.69
688.00 288.00 0.00 11.35 -2.69
689.00 288.00 0.00 11.35 -2.69
690.00 288.00 0.00 11.35 -2.69
691.00 288.00 0.00 11.35 -2.69
692.00 288.00 0.00 11.35 -2.69
693.00 288.00 0.00 11.35 -2.69
694.00 288.00 0.00 11.35 -2.69
695.00 288.00 0.00 11.35 -2.69
696.00 288.00 0.00 11.35 -2.69
697.00 288.00 0.00 11.35 -2.69
698.00 288.00 0.00 11.35 -2.69
699.00 288.00 0.00 11.35 -2.69
700.00 288.00 0.00 11.35 -2.69
701.00 288.00 0.00 11.35 -2.69
702.00 288.00 0.00 11.35 -2.69
703.00 288.00 0.00 11.35 -2.69
704.00 288.00 0.00 11.35 -2.69
705.00 288.00 0.00 11.35 -2.69
706.00 288.00 0.00 11.35 -2.69
707.00 288.00 0.00 11.35 -2.69
708.00 288.00 0.00 11.35 -2.69
709.00 288.00 0.00 11.35 -2.69
710.00 288.00 0.00 11.35 -2.69
711.00 288.00 0.00 11.35 -2.69
712.00 288.00 0.00 11.35 -2.69
713.00 288.00 0.00 11.35 -2.69
714.00 288.00 0.00 11.35 -2.69
715.00 288.00 0.00 11.35 -2.69
716.00 288.00 0.00 11.35 -2.69
717.00 288.00 0.00 11.35 -2.69
718.00 288.00 0.00 11.35 -2.69
719.00 288.00 0.00 11.35 -2.69
720.00 288.00 0.00 11.35 -2.69
721.00 288.00 0.00 11.35 -2.69
722.00 288.00 0.00 11.35 -2.69
723.00 288.00 0.00 11.35 -2.69
724.00 288.00 0.00 11.35 -2.69
725.00 288.00 0.00 11.35 -2.69
726.00 288.00 0.00 11.35 -2.69
727.00 288.00 0.00 11.35 -2.69
728.00 288.00 0.00 11.35 -2.69
729.00 288.00 0.00 11.35 -2.69
730.00 288.00 0.00 11.35 -2.69
731.00 288.00 0.00 11.35 -2.69
732.00 288.00 0.00 11.35 -2.69
733.00 288.00 0.00 11.35 -2.69
734.00 288.00 0.00 11.35 -2.69
735.00 288.00 0.00 11.35 -2.69
736.00 288.00 0.00 11.35 -2.69
737.00 288.00 0.00 11.35 -2.69
738.00 288.00 0.00 11.35 -2.69
739.00 288.00 0.00 11.35 -2.69
740.00 288.00 0.00 11.35 -2.69
741.00 288.00 0.00 11.35 -2.69
742.00 288.00 0.00 11.35 -2.69
743.00 288.00 0.00 11.35 -2.69
744.00 288.00 0.00 11.35 -2.69
745.00 288.00 0.00 11.35 -2.69
746.00 288.00 0.00 11.35 -2.69
747.00 288.00 0.00 11.35 -2.69
748.00 288.00 0.00 11.35 -2.69
749.00 288.00 0.00 11.35 -2.69
750.00 288.00 0.00 11.35 -2.69
751.00 288.00 0.00 11.35 -2.69
752.00 288.00 0.00 11.35 -2.69
753.00 288.00 0.00 11.35 -2.69
754.00 288.00 0.00 11.35 -2.69
755.00 288.00 0.00 11.35 -2.69
756.00 288.00 0.00 11.35 -2.69
757.00 288.00 0.00 11.35 -2.69
758.00 288.00 0.00 11.35 -2.69
759.00 288.00 0.00 11.35 -2.69
760.00 288.00 0.00 11.35 -2.69
761.00 288.00 0.00 11.35 -2.69
762.00 288.00 0.00 11.35 -2.69
763.00 288.00 0.00 11.35 -2.69
764.00 288.00 0.00 11.35 -2.69
765.00 288.00 0.00 11.35 -2.69
766.00 288.00 0.00 11.35 -2.69
767.00 288.00 0.00 11.35 -2.69
768.00 288.00 0.00 11.35 -2.69
769.00 288.00 0.00 11.35 -2.69
770.00 288.00 0.00 11.35 -2.69
771.00 288.00 0.00 11.35 -2.69
772.00 288.00 0.00 11.35 -2.69
773.00 288.00 0.00 11.35 -2.69
774.00 288.00 0.00 11.35 -2.69
775.00 288.00 0.00 11.35 -2.69
776.00 288.00 0.00 11.35 -2.69
777.00 288.00 0.00 11.35 -2.69
778.00 288.00 0.00 11.35 -2.69
779.00 288.00 0.00 11.35 -2.69
780.00 288.00 0.00 11.35 -2.69
781.00 288.00 0.00 11.35 -2.69
782.00 288.00 0.00 11.35 -2.69
783.00 288.00 0.00 11.35 -2.69
784.00 288.00 0.00 11.35 -2.69
785.00 288.00 0.00 11.35 -2.69
786.00 288.00 0.00 11.35 -2.69
787.00 288.00 0.00 11.35 -2.69
788.00 288.00 0.00 11.35 -2.69
789.00 288.00 0.00 11.35 -2.69
790.00 288.00 0.00 11.35 -2.69
791.00 288.00 0.00 11.35 -2.69
792.00 288.00 0.00 11.35 -2.69
793.00 288.00 0.00 11.35 -2.69
794.00 288.00 0.00 11.35 -2.69
795.00 288.00 0.00 11.35 -2.69
796.00 288.00 0.00 11.35 -2.69
797.00 288.00 0.00 11.35 -2.69
798.00 288.00 0.00 11.35 -2.69
799.00 288.00 0.00 11.35 -2.69
800.00 288.00 0.00 11.35 -2.69
801.00 288.00 0.00 11.35 -2.69
802.00 288.00 0.00 11.35 -2.69
803.00 288.00 0.00 11.35 -2.69
804.00 288.00 0.00 11.35 -2.69
805.00 288.00 0.00 11.35 -2.69
806.00 288.00 0.00 11.35 -2.69
807.00 288.00 0.00 11.35 -2.69
808.00 288.00 0.00 11.35 -2.69
809.00 288.00 0.00 11.35 -2.69
810.00 288.00 0.00 11.35 -2.69
811.00 288.00 0.00 11.35 -2.69
812.00 288.00 0.00 11.35 -2.69
813.00 288.00 0.00 11.35 -2.69
814.00 288.00 0.00 11.35 -2.69
815.00 288.00 0.00 11.35 -2.69
816.00 288.00 0.00 11.35 -2.69
817.00 288.00 0.00 11.35 -2.69
818.00 288.00 0.00 11.35 -2.69
819.00 288.00 0.00 11.35 -2.69
820.00 288.00 0.00 11.35 -2.69
821.00 288.00 0.00 11.35 -2.69
822.00 288.00 0.00 11.35 -2.69
823.00 288.00 0.00 11.35 -2.69
824.00 288.00 0.00 11.35 -2.69
825.00 288.00 0.00 11.35 -2.69
826.00 288.00 0.00 11.35 -2.69
827.00 288.00 0.00 11.35 -2.69
828.00 288.00 0.00 11.35 -2.69
829.00 288.00 0.00 11.35 -2.69
830.00 288.00 0.00 11.35 -2.69
831.00 288.00 0.00 11.35 -2.69
