1000.00 288.00 00.00
0.00 288.00 0.00 5.25 -6.14
1.00 288.00 0.00 5.25 -6.14
2.00 288.00 0.00 5.25 -6.14
3.00 288.00 0.00 5.25 -6.14
4.00 288.00 0.00 5.25 -6.14
5.00 288.00 0.00 5.25 -6.14
6.00 288.00 0.00 5.25 -6.14
7.00 288.00 0.00 5.25 -6.14
8.00 288.00 0.00 5.25 -6.14
9.00 288.00 0.00 5.25 -6.14
10.00 288.00 0.00 5.25 -6.14
11.00 288.00 0.00 5.25 -6.14
12.00 288.00 0.00 5.25 -6.14
13.00 288.00 0.00 5.25 -6.14
14.00 288.00 0.00 5.25 -6.14
15.00 288.00 0.00 5.25 -6.14
16.00 288.00 0.00 5.25 -6.14
17.00 288.00 0.00 5.25 -6.14
18.00 288.00 0.00 5.25 -6.14
19.00 288.00 0.00 5.25 -6.14
20.00 288.00 0.00 5.25 -6.14
21.00 288.00 0.00 5.25 -6.14
22.00 288.00 0.00 5.25 -6.14
23.00 288.00 0.00 5.25 -6.14
24.00 288.00 0.00 5.25 -6.14
25.00 288.00 0.00 5.25 -6.14
26.00 288.00 0.00 5.25 -6.14
27.00 288.00 0.00 5.25 -6.14
28.00 288.00 0.00 5.25 -6.14
29.00 288.00 0.00 5.25 -6.14
30.00 288.00 0.00 5.25 -6.14
31.00 288.00 0.00 5.25 -6.14
32.00 288.00 0.00 5.25 -6.14
33.00 288.00 0.00 5.25 -6.14
34.00 288.00 0.00 5.25 -6.14
35.00 288.00 0.00 5.25 -6.14
36.00 288.00 0.00 5.25 -6.14
37.00 288.00 0.00 5.25 -6.14
38.00 288.00 0.00 5.25 -6.14
39.00 288.00 0.00 5.25 -6.14
40.00 288.00 0.00 5.25 -6.14
41.00 288.00 0.00 5.25 -6.14
42.00 288.00 0.00 5.25 -6.14
43.00 288.00 0.00 5.25 -6.14
44.00 288.00 0.00 5.25 -6.14
45.00 288.00 0.00 5.25 -6.14
46.00 288.00 0.00 5.25 -6.14
47.00 288.00 0.00 5.25 -6.14
48.00 288.00 0.00 5.25 -6.14
49.00 288.00 0.00 5.25 -6.14
50.00 288.00 0.00 5.25 -6.14
51.00 288.00 0.00 5.25 -6.14
52.00 288.00 0.00 5.25 -6.14
53.00 288.00 0.00 5.25 -6.14
54.00 288.00 0.00 5.25 -6.14
55.00 288.00 0.00 5.25 -6.14
56.00 288.00 0.00 5.25 -6.14
57.00 288.00 0.00 5.25 -6.14
58.00 288.00 0.00 5.25 -6.14
59.00 288.00 0.00 5.25 -6.14
60.00 288.00 0.00 5.25 -6.14
61.00 288.00 0.00 5.25 -6.14
62.00 288.00 0.00 5.25 -6.14
63.00 288.00 0.00 5.25 -6.14
64.00 288.00 0.00 5.25 -6.14
65.00 288.00 0.00 5.25 -6.14
66.00 288.00 0.00 5.25 -6.14
67.00 288.00 0.00 5.25 -6.14
68.00 288.00 0.00 5.25 -6.14
69.00 288.00 0.00 5.25 -6.14
70.00 288.00 0.00 5.25 -6.14
71.00 288.00 0.00 5.25 -6.14
72.00 288.00 0.00 5.25 -6.14
73.00 288.00 0.00 5.25 -6.14
74.00 288.00 0.00 5.25 -6.14
75.00 288.00 0.00 5.25 -6.14
76.00 288.00 0.00 5.25 -6.14
77.00 288.00 0.00 5.25 -6.14
78.00 288.00 0.00 5.25 -6.14
79.00 288.00 0.00 5.25 -6.14
80.00 288.00 0.00 5.25 -6.14
81.00 288.00 0.00 5.25 -6.14
82.00 288.00 0.00 5.25 -6.14
83.00 288.00 0.00 5.25 -6.14
84.00 288.00 0.00 5.25 -6.14
85.00 288.00 0.00 5.25 -6.14
86.00 288.00 0.00 5.25 -6.14
87.00 288.00 0.00 5.25 -6.14
88.00 288.00 0.00 5.25 -6.14
89.00 288.00 0.00 5.25 -6.14
90.00 288.00 0.00 5.25 -6.14
91.00 288.00 0.00 5.25 -6.14
92.00 288.00 0.00 5.25 -6.14
93.00 288.00 0.00 5.25 -6.14
94.00 288.00 0.00 5.25 -6.14
95.00 288.00 0.00 5.25 -6.14
96.00 288.00 0.00 5.25 -6.14
97.00 288.00 0.00 5.25 -6.14
98.00 288.00 0.00 5.25 -6.14
99.00 288.00 0.00 5.25 -6.14
100.00 288.00 0.00 5.25 -6.14
101.00 288.00 0.00 5.25 -6.14
102.00 288.00 0.00 5.25 -6.14
103.00 288.00 0.00 5.25 -6.14
104.00 288.00 0.00 5.25 -6.14
105.00 288.00 0.00 5.25 -6.14
106.00 288.00 0.00 5.25 -6.14
107.00 288.00 0.00 5.25 -6.14
108.00 288.00 0.00 5.25 -6.14
109.00 288.00 0.00 5.25 -6.14
110.00 288.00 0.00 5.25 -6.14
111.00 288.00 0.00 5.25 -6.14
112.00 288.00 0.00 5.25 -6.14
113.00 288.00 0.00 5.25 -6.14
114.00 288.00 0.00 5.25 -6.14
115.00 288.00 0.00 5.25 -6.14
116.00 288.00 0.00 5.25 -6.14
117.00 288.00 0.00 5.25 -6.14
118.00 288.00 0.00 5.25 -6.14
119.00 288.00 0.00 5.25 -6.14
120.00 288.00 0.00 5.25 -6.13
121.00 288.00 0.00 5.25 -6.13
122.00 288.00 0.00 5.25 -6.13
123.00 288.00 0.00 5.25 -6.13
124.00 288.00 0.00 5.25 -6.13
125.00 288.00 0.00 5.25 -6.13
126.00 288.00 0.00 5.25 -6.13
127.00 288.00 0.00 5.25 -6.13
128.00 288.00 0.00 5.26 -6.13
129.00 288.00 0.00 5.26 -6.12
130.00 288.00 0.00 5.26 -6.12
131.00 288.00 0.00 5.26 -6.12
132.00 288.00 0.00 5.26 -6.12
133.00 288.00 0.00 5.26 -6.12
134.00 288.00 0.00 5.26 -6.11
135.00 288.00 0.00 5.26 -6.11
136.00 288.00 0.00 5.26 -6.11
137.00 288.00 0.00 5.26 -6.11
138.00 288.00 0.00 5.27 -6.10
139.00 288.00 0.00 5.27 -6.10
140.00 288.00 0.00 5.27 -6.10
141.00 288.00 0.00 5.27 -6.09
142.00 288.00 0.00 5.27 -6.09
143.00 288.00 0.00 5.27 -6.09
144.00 288.00 0.00 5.27 -6.08
145.00 288.00 0.00 5.28 -6.08
146.00 288.00 0.00 5.28 -6.08
147.00 288.00 0.00 5.28 -6.07
148.00 288.00 0.00 5.28 -6.07
149.00 288.00 0.00 5.28 -6.07
150.00 288.00 0.00 5.29 -6.06
151.00 288.00 0.00 5.29 -6.06
152.00 288.00 0.00 5.29 -6.05
153.00 288.00 0.00 5.29 -6.05
154.00 288.00 0.00 5.29 -6.04
155.00 288.00 0.00 5.30 -6.04
156.00 288.00 0.00 5.30 -6.03
157.00 288.00 0.00 5.30 -6.03
158.00 288.00 0.00 5.30 -6.02
159.00 288.00 0.00 5.31 -6.02
160.00 288.00 0.00 5.31 -6.01
161.00 288.00 0.00 5.31 -6.01
162.00 288.00 0.00 5.31 -6.00
163.00 288.00 0.00 5.32 -5.99
164.00 288.00 0.00 5.32 -5.99
165.00 288.00 0.00 5.32 -5.98
166.00 288.00 0.00 5.32 -5.97
167.00 288.00 0.00 5.33 -5.97
168.00 288.00 0.00 5.33 -5.96
169.00 288.00 0.00 5.33 -5.95
170.00 288.00 0.00 5.34 -5.95
171.00 288.00 0.00 5.34 -5.94
172.00 288.00 0.00 5.34 -5.93
173.00 288.00 0.00 5.35 -5.93
174.00 288.00 0.00 5.35 -5.92
175.00 288.00 0.00 5.35 -5.91
176.00 288.00 0.00 5.36 -5.90
177.00 288.00 0.00 5.36 -5.89
178.00 288.00 0.00 5.36 -5.89
179.00 288.00 0.00 5.37 -5.88
180.00 288.00 0.00 5.37 -5.87
181.00 288.00 0.00 5.37 -5.86
182.00 288.00 0.00 5.38 -5.85
183.00 288.00 0.00 5.38 -5.84
184.00 288.00 0.00 5.39 -5.83
185.00 288.00 0.00 5.39 -5.82
186.00 288.00 0.00 5.39 -5.82
187.00 288.00 0.00 5.40 -5.81
188.00 288.00 0.00 5.40 -5.80
189.00 288.00 0.00 5.41 -5.79
190.00 288.00 0.00 5.41 -5.78
191.00 288.00 0.00 5.41 -5.77
192.00 288.00 0.00 5.42 -5.75
193.00 288.00 0.00 5.42 -5.74
194.00 288.00 0.00 5.43 -5.73
195.00 288.00 0.00 5.43 -5.72
196.00 288.00 0.00 5.44 -5.71
197.00 288.00 0.00 5.44 -5.70
198.00 288.00 0.00 5.45 -5.69
199.00 288.00 0.00 5.45 -5.68
200.00 288.00 0.00 5.45 -5.66
201.00 288.00 0.00 5.46 -5.65
202.00 288.00 0.00 5.46 -5.64
203.00 288.00 0.00 5.47 -5.63
204.00 288.00 0.00 5.47 -5.61
205.00 288.00 0.00 5.48 -5.60
206.00 288.00 0.00 5.48 -5.59
207.00 288.00 0.00 5.49 -5.57
208.00 288.00 0.00 5.49 -5.56
209.00 288.00 0.00 5.50 -5.55
210.00 288.00 0.00 5.51 -5.53
211.00 288.00 0.00 5.51 -5.52
212.00 288.00 0.00 5.52 -5.50
213.00 288.00 0.00 5.52 -5.49
214.00 288.00 0.00 5.53 -5.48
215.00 288.00 0.00 5.53 -5.46
216.00 288.00 0.00 5.54 -5.45
217.00 288.00 0.00 5.54 -5.43
218.00 288.00 0.00 5.55 -5.41
219.00 288.00 0.00 5.56 -5.40
220.00 288.00 0.00 5.56 -5.38
221.00 288.00 0.00 5.57 -5.37
222.00 288.00 0.00 5.57 -5.35
223.00 288.00 0.00 5.58 -5.33
224.00 288.00 0.00 5.59 -5.32
225.00 288.00 0.00 5.59 -5.30
226.00 288.00 0.00 5.60 -5.28
227.00 288.00 0.00 5.60 -5.26
228.00 288.00 0.00 5.61 -5.25
229.00 288.00 0.00 5.62 -5.23
230.00 288.00 0.00 5.62 -5.21
231.00 288.00 0.00 5.63 -5.19
232.00 288.00 0.00 5.64 -5.17
233.00 288.00 0.00 5.64 -5.15
234.00 288.00 0.00 5.65 -5.13
235.00 288.00 0.00 5.66 -5.11
236.00 288.00 0.00 5.66 -5.09
237.00 288.00 0.00 5.67 -5.07
238.00 288.00 0.00 5.68 -5.05
239.00 288.00 0.00 5.68 -5.03
240.00 288.00 0.00 5.69 -5.01
241.00 288.00 0.00 5.70 -4.99
242.00 288.00 0.00 5.70 -4.97
243.00 288.00 0.00 5.71 -4.95
244.00 288.00 0.00 5.72 -4.92
245.00 288.00 0.00 5.73 -4.90
246.00 288.00 0.00 5.73 -4.88
247.00 288.00 0.00 5.74 -4.86
248.00 288.00 0.00 5.75 -4.83
249.00 288.00 0.00 5.76 -4.81
250.00 288.00 0.00 5.76 -4.79
251.00 288.00 0.00 5.77 -4.76
252.00 288.00 0.00 5.78 -4.74
253.00 288.00 0.00 5.79 -4.71
254.00 288.00 0.00 5.79 -4.69
255.00 288.00 0.00 5.80 -4.67
256.00 288.00 0.00 5.81 -4.64
257.00 288.00 0.00 5.82 -4.61
258.00 288.00 0.00 5.83 -4.59
259.00 288.00 0.00 5.83 -4.56
260.00 288.00 0.00 5.84 -4.54
261.00 288.00 0.00 5.85 -4.51
262.00 288.00 0.00 5.86 -4.48
263.00 288.00 0.00 5.87 -4.45
264.00 288.00 0.00 5.87 -4.43
265.00 288.00 0.00 5.88 -4.40
266.00 288.00 0.00 5.89 -4.37
267.00 288.00 0.00 5.90 -4.34
268.00 288.00 0.00 5.91 -4.31
269.00 288.00 0.00 5.92 -4.28
270.00 288.00 0.00 5.93 -4.25
271.00 288.00 0.00 5.93 -4.23
272.00 288.00 0.00 5.94 -4.20
273.00 288.00 0.00 5.95 -4.16
274.00 288.00 0.00 5.96 -4.13
275.00 288.00 0.00 5.97 -4.10
276.00 288.00 0.00 5.98 -4.07
277.00 288.00 0.00 5.99 -4.04
278.00 288.00 0.00 6.00 -4.01
279.00 288.00 0.00 6.01 -3.98
280.00 288.00 0.00 6.02 -3.94
281.00 288.00 0.00 6.03 -3.91
282.00 288.00 0.00 6.03 -3.88
283.00 288.00 0.00 6.04 -3.84
284.00 288.00 0.00 6.05 -3.81
285.00 288.00 0.00 6.06 -3.78
286.00 288.00 0.00 6.07 -3.74
287.00 288.00 0.00 6.08 -3.71
288.00 288.00 0.00 6.09 -3.67
289.00 288.00 0.00 6.10 -3.63
290.00 288.00 0.00 6.11 -3.60
291.00 288.00 0.00 6.12 -3.56
292.00 288.00 0.00 6.13 -3.53
293.00 288.00 0.00 6.14 -3.49
294.00 288.00 0.00 6.15 -3.45
295.00 288.00 0.00 6.16 -3.41
296.00 288.00 0.00 6.17 -3.38
297.00 288.00 0.00 6.18 -3.34
298.00 288.00 0.00 6.19 -3.30
299.00 288.00 0.00 6.20 -3.26
300.00 288.00 0.00 6.21 -3.23
301.00 288.00 0.00 6.22 -3.19
302.00 288.00 0.00 6.23 -3.15
303.00 288.00 0.00 6.24 -3.11
304.00 288.00 0.00 6.25 -3.07
305.00 288.00 0.00 6.26 -3.03
306.00 288.00 0.00 6.27 -2.99
307.00 288.00 0.00 6.28 -2.96
308.00 288.00 0.00 6.29 -2.92
309.00 288.00 0.00 6.30 -2.88
310.00 288.00 0.00 6.31 -2.84
311.00 288.00 0.00 6.32 -2.80
312.00 288.00 0.00 6.33 -2.76
313.00 288.00 0.00 6.34 -2.72
314.00 288.00 0.00 6.35 -2.68
315.00 288.00 0.00 6.36 -2.64
316.00 288.00 0.00 6.37 -2.60
317.00 288.00 0.00 6.38 -2.56
318.00 288.00 0.00 6.39 -2.52
319.00 288.00 0.00 6.40 -2.48
320.00 288.00 0.00 6.41 -2.44
321.00 288.00 0.00 6.42 -2.40
322.00 288.00 0.00 6.43 -2.36
323.00 288.00 0.00 6.44 -2.32
324.00 288.00 0.00 6.45 -2.28
325.00 288.00 0.00 6.46 -2.24
326.00 288.00 0.00 6.47 -2.20
327.00 288.00 0.00 6.48 -2.16
328.00 288.00 0.00 6.49 -2.12
329.00 288.00 0.00 6.50 -2.07
330.00 288.00 0.00 6.51 -2.03
331.00 288.00 0.00 6.52 -1.99
332.00 288.00 0.00 6.53 -1.95
333.00 288.00 0.00 6.54 -1.91
334.00 288.00 0.00 6.55 -1.87
335.00 288.00 0.00 6.56 -1.83
336.00 288.00 0.00 6.57 -1.79
337.00 288.00 0.00 6.58 -1.74
338.00 288.00 0.00 6.59 -1.70
339.00 288.00 0.00 6.60 -1.66
340.00 288.00 0.00 6.61 -1.62
341.00 288.00 0.00 6.62 -1.58
342.00 288.00 0.00 6.63 -1.53
343.00 288.00 0.00 6.64 -1.49
344.00 288.00 0.00 6.65 -1.45
345.00 288.00 0.00 6.66 -1.41
346.00 288.00 0.00 6.67 -1.37
347.00 288.00 0.00 6.68 -1.32
348.00 288.00 0.00 6.69 -1.28
349.00 288.00 0.00 6.70 -1.24
350.00 288.00 0.00 6.71 -1.20
351.00 288.00 0.00 6.72 -1.16
352.00 288.00 0.00 6.73 -1.11
353.00 288.00 0.00 6.74 -1.07
354.00 288.00 0.00 6.75 -1.03
355.00 288.00 0.00 6.76 -0.99
356.00 288.00 0.00 6.77 -0.94
357.00 288.00 0.00 6.78 -0.90
358.00 288.00 0.00 6.79 -0.86
359.00 288.00 0.00 6.80 -0.81
360.00 288.00 0.00 6.81 -0.77
361.00 288.00 0.00 6.82 -0.73
362.00 288.00 0.00 6.83 -0.69
363.00 288.00 0.00 6.84 -0.64
364.00 288.00 0.00 6.85 -0.60
365.00 288.00 0.00 6.86 -0.56
366.00 288.00 0.00 6.87 -0.52
367.00 288.00 0.00 6.88 -0.47
368.00 288.00 0.00 6.89 -0.43
369.00 288.00 0.00 6.90 -0.39
370.00 288.00 0.00 6.91 -0.34
371.00 288.00 0.00 6.92 -0.30
372.00 288.00 0.00 6.93 -0.26
373.00 288.00 0.00 6.94 -0.21
374.00 288.00 0.00 6.95 -0.17
375.00 288.00 0.00 6.96 -0.13
376.00 288.00 0.00 6.97 -0.09
377.00 288.00 0.00 6.98 -0.04
378.00 288.00 0.00 6.99 0.00
379.00 288.00 0.00 7.01 0.04
380.00 288.00 0.00 7.02 0.09
381.00 288.00 0.00 7.03 0.13
382.00 288.00 0.00 7.04 0.17
383.00 288.00 0.00 7.05 0.21
384.00 288.00 0.00 7.06 0.26
385.00 288.00 0.00 7.07 0.30
386.00 288.00 0.00 7.08 0.34
387.00 288.00 0.00 7.09 0.39
388.00 288.00 0.00 7.10 0.43
389.00 288.00 0.00 7.11 0.47
390.00 288.00 0.00 7.12 0.52
391.00 288.00 0.00 7.13 0.56
392.00 288.00 0.00 7.14 0.60
393.00 288.00 0.00 7.15 0.64
394.00 288.00 0.00 7.16 0.69
395.00 288.00 0.00 7.17 0.73
396.00 288.00 0.00 7.18 0.77
397.00 288.00 0.00 7.19 0.81
398.00 288.00 0.00 7.20 0.86
399.00 288.00 0.00 7.21 0.90
400.00 288.00 0.00 7.22 0.94
401.00 288.00 0.00 7.23 0.99
402.00 288.00 0.00 7.24 1.03
403.00 288.00 0.00 7.25 1.07
404.00 288.00 0.00 7.26 1.11
405.00 288.00 0.00 7.27 1.16
406.00 288.00 0.00 7.28 1.20
407.00 288.00 0.00 7.29 1.24
408.00 288.00 0.00 7.30 1.28
409.00 288.00 0.00 7.31 1.32
410.00 288.00 0.00 7.32 1.37
411.00 288.00 0.00 7.33 1.41
412.00 288.00 0.00 7.34 1.45
413.00 288.00 0.00 7.35 1.49
414.00 288.00 0.00 7.36 1.53
415.00 288.00 0.00 7.37 1.58
416.00 288.00 0.00 7.38 1.62
417.00 288.00 0.00 7.39 1.66
418.00 288.00 0.00 7.40 1.70
419.00 288.00 0.00 7.41 1.74
420.00 288.00 0.00 7.42 1.79
421.00 288.00 0.00 7.43 1.83
422.00 288.00 0.00 7.44 1.87
423.00 288.00 0.00 7.45 1.91
424.00 288.00 0.00 7.46 1.95
425.00 288.00 0.00 7.47 1.99
426.00 288.00 0.00 7.48 2.03
427.00 288.00 0.00 7.49 2.07
428.00 288.00 0.00 7.50 2.12
429.00 288.00 0.00 7.51 2.16
430.00 288.00 0.00 7.52 2.20
431.00 288.00 0.00 7.53 2.24
432.00 288.00 0.00 7.54 2.28
433.00 288.00 0.00 7.55 2.32
434.00 288.00 0.00 7.56 2.36
435.00 288.00 0.00 7.57 2.40
436.00 288.00 0.00 7.58 2.44
437.00 288.00 0.00 7.59 2.48
438.00 288.00 0.00 7.60 2.52
439.00 288.00 0.00 7.61 2.56
440.00 288.00 0.00 7.62 2.60
441.00 288.00 0.00 7.63 2.64
442.00 288.00 0.00 7.64 2.68
443.00 288.00 0.00 7.65 2.72
444.00 288.00 0.00 7.66 2.76
445.00 288.00 0.00 7.67 2.80
446.00 288.00 0.00 7.68 2.84
447.00 288.00 0.00 7.69 2.88
448.00 288.00 0.00 7.70 2.92
449.00 288.00 0.00 7.71 2.96
450.00 288.00 0.00 7.72 2.99
451.00 288.00 0.00 7.73 3.03
452.00 288.00 0.00 7.74 3.07
453.00 288.00 0.00 7.75 3.11
454.00 288.00 0.00 7.76 3.15
455.00 288.00 0.00 7.77 3.19
456.00 288.00 0.00 7.78 3.23
457.00 288.00 0.00 7.79 3.26
458.00 288.00 0.00 7.80 3.30
459.00 288.00 0.00 7.81 3.34
460.00 288.00 0.00 7.82 3.38
461.00 288.00 0.00 7.83 3.41
462.00 288.00 0.00 7.84 3.45
463.00 288.00 0.00 7.85 3.49
464.00 288.00 0.00 7.86 3.53
465.00 288.00 0.00 7.87 3.56
466.00 288.00 0.00 7.88 3.60
467.00 288.00 0.00 7.89 3.63
468.00 288.00 0.00 7.90 3.67
469.00 288.00 0.00 7.91 3.71
470.00 288.00 0.00 7.92 3.74
471.00 288.00 0.00 7.93 3.78
472.00 288.00 0.00 7.94 3.81
473.00 288.00 0.00 7.95 3.84
474.00 288.00 0.00 7.96 3.88
475.00 288.00 0.00 7.97 3.91
476.00 288.00 0.00 7.97 3.94
477.00 288.00 0.00 7.98 3.98
478.00 288.00 0.00 7.99 4.01
479.00 288.00 0.00 8.00 4.04
480.00 288.00 0.00 8.01 4.07
481.00 288.00 0.00 8.02 4.10
482.00 288.00 0.00 8.03 4.13
483.00 288.00 0.00 8.04 4.16
484.00 288.00 0.00 8.05 4.20
485.00 288.00 0.00 8.06 4.23
486.00 288.00 0.00 8.07 4.25
487.00 288.00 0.00 8.07 4.28
488.00 288.00 0.00 8.08 4.31
489.00 288.00 0.00 8.09 4.34
490.00 288.00 0.00 8.10 4.37
491.00 288.00 0.00 8.11 4.40
492.00 288.00 0.00 8.12 4.43
493.00 288.00 0.00 8.13 4.45
494.00 288.00 0.00 8.13 4.48
495.00 288.00 0.00 8.14 4.51
496.00 288.00 0.00 8.15 4.54
497.00 288.00 0.00 8.16 4.56
498.00 288.00 0.00 8.17 4.59
499.00 288.00 0.00 8.17 4.61
500.00 288.00 0.00 8.18 4.64
501.00 288.00 0.00 8.19 4.67
502.00 288.00 0.00 8.20 4.69
503.00 288.00 0.00 8.21 4.71
504.00 288.00 0.00 8.21 4.74
505.00 288.00 0.00 8.22 4.76
506.00 288.00 0.00 8.23 4.79
507.00 288.00 0.00 8.24 4.81
508.00 288.00 0.00 8.24 4.83
509.00 288.00 0.00 8.25 4.86
510.00 288.00 0.00 8.26 4.88
511.00 288.00 0.00 8.27 4.90
512.00 288.00 0.00 8.27 4.92
513.00 288.00 0.00 8.28 4.95
514.00 288.00 0.00 8.29 4.97
515.00 288.00 0.00 8.30 4.99
516.00 288.00 0.00 8.30 5.01
517.00 288.00 0.00 8.31 5.03
518.00 288.00 0.00 8.32 5.05
519.00 288.00 0.00 8.32 5.07
520.00 288.00 0.00 8.33 5.09
521.00 288.00 0.00 8.34 5.11
522.00 288.00 0.00 8.34 5.13
523.00 288.00 0.00 8.35 5.15
524.00 288.00 0.00 8.36 5.17
525.00 288.00 0.00 8.36 5.19
526.00 288.00 0.00 8.37 5.21
527.00 288.00 0.00 8.38 5.23
528.00 288.00 0.00 8.38 5.25
529.00 288.00 0.00 8.39 5.26
530.00 288.00 0.00 8.40 5.28
531.00 288.00 0.00 8.40 5.30
532.00 288.00 0.00 8.41 5.32
533.00 288.00 0.00 8.41 5.33
534.00 288.00 0.00 8.42 5.35
535.00 288.00 0.00 8.43 5.37
536.00 288.00 0.00 8.43 5.38
537.00 288.00 0.00 8.44 5.40
538.00 288.00 0.00 8.44 5.41
539.00 288.00 0.00 8.45 5.43
540.00 288.00 0.00 8.46 5.45
541.00 288.00 0.00 8.46 5.46
542.00 288.00 0.00 8.47 5.48
543.00 288.00 0.00 8.47 5.49
544.00 288.00 0.00 8.48 5.50
545.00 288.00 0.00 8.48 5.52
546.00 288.00 0.00 8.49 5.53
547.00 288.00 0.00 8.49 5.55
548.00 288.00 0.00 8.50 5.56
549.00 288.00 0.00 8.51 5.57
550.00 288.00 0.00 8.51 5.59
551.00 288.00 0.00 8.52 5.60
552.00 288.00 0.00 8.52 5.61
553.00 288.00 0.00 8.53 5.63
554.00 288.00 0.00 8.53 5.64
555.00 288.00 0.00 8.54 5.65
556.00 288.00 0.00 8.54 5.66
557.00 288.00 0.00 8.55 5.68
558.00 288.00 0.00 8.55 5.69
559.00 288.00 0.00 8.55 5.70
560.00 288.00 0.00 8.56 5.71
561.00 288.00 0.00 8.56 5.72
562.00 288.00 0.00 8.57 5.73
563.00 288.00 0.00 8.57 5.74
564.00 288.00 0.00 8.58 5.75
565.00 288.00 0.00 8.58 5.77
566.00 288.00 0.00 8.59 5.78
567.00 288.00 0.00 8.59 5.79
568.00 288.00 0.00 8.59 5.80
569.00 288.00 0.00 8.60 5.81
570.00 288.00 0.00 8.60 5.82
571.00 288.00 0.00 8.61 5.82
572.00 288.00 0.00 8.61 5.83
573.00 288.00 0.00 8.61 5.84
574.00 288.00 0.00 8.62 5.85
575.00 288.00 0.00 8.62 5.86
576.00 288.00 0.00 8.63 5.87
577.00 288.00 0.00 8.63 5.88
578.00 288.00 0.00 8.63 5.89
579.00 288.00 0.00 8.64 5.89
580.00 288.00 0.00 8.64 5.90
581.00 288.00 0.00 8.64 5.91
582.00 288.00 0.00 8.65 5.92
583.00 288.00 0.00 8.65 5.93
584.00 288.00 0.00 8.65 5.93
585.00 288.00 0.00 8.66 5.94
586.00 288.00 0.00 8.66 5.95
587.00 288.00 0.00 8.66 5.95
588.00 288.00 0.00 8.67 5.96
589.00 288.00 0.00 8.67 5.97
590.00 288.00 0.00 8.67 5.97
591.00 288.00 0.00 8.68 5.98
592.00 288.00 0.00 8.68 5.99
593.00 288.00 0.00 8.68 5.99
594.00 288.00 0.00 8.68 6.00
595.00 288.00 0.00 8.69 6.01
596.00 288.00 0.00 8.69 6.01
597.00 288.00 0.00 8.69 6.02
598.00 288.00 0.00 8.69 6.02
599.00 288.00 0.00 8.70 6.03
600.00 288.00 0.00 8.70 6.03
601.00 288.00 0.00 8.70 6.04
602.00 288.00 0.00 8.70 6.04
603.00 288.00 0.00 8.71 6.05
604.00 288.00 0.00 8.71 6.05
605.00 288.00 0.00 8.71 6.06
606.00 288.00 0.00 8.71 6.06
607.00 288.00 0.00 8.71 6.07
608.00 288.00 0.00 8.72 6.07
609.00 288.00 0.00 8.72 6.07
610.00 288.00 0.00 8.72 6.08
611.00 288.00 0.00 8.72 6.08
612.00 288.00 0.00 8.72 6.08
613.00 288.00 0.00 8.73 6.09
614.00 288.00 0.00 8.73 6.09
615.00 288.00 0.00 8.73 6.09
616.00 288.00 0.00 8.73 6.10
617.00 288.00 0.00 8.73 6.10
618.00 288.00 0.00 8.73 6.10
619.00 288.00 0.00 8.73 6.11
620.00 288.00 0.00 8.74 6.11
621.00 288.00 0.00 8.74 6.11
622.00 288.00 0.00 8.74 6.11
623.00 288.00 0.00 8.74 6.12
624.00 288.00 0.00 8.74 6.12
625.00 288.00 0.00 8.74 6.12
626.00 288.00 0.00 8.74 6.12
627.00 288.00 0.00 8.74 6.12
628.00 288.00 0.00 8.74 6.13
629.00 288.00 0.00 8.74 6.13
630.00 288.00 0.00 8.75 6.13
631.00 288.00 0.00 8.75 6.13
632.00 288.00 0.00 8.75 6.13
633.00 288.00 0.00 8.75 6.13
634.00 288.00 0.00 8.75 6.13
635.00 288.00 0.00 8.75 6.13
636.00 288.00 0.00 8.75 6.13
637.00 288.00 0.00 8.75 6.14
638.00 288.00 0.00 8.75 6.14
639.00 288.00 0.00 8.75 6.14
640.00 288.00 0.00 8.75 6.14
641.00 288.00 0.00 8.75 6.14
642.00 288.00 0.00 8.75 6.14
643.00 288.00 0.00 8.75 6.14
644.00 288.00 0.00 8.75 6.14
645.00 288.00 0.00 8.75 6.14
646.00 288.00 0.00 8.75 6.14
647.00 288.00 0.00 8.75 6.14
648.00 288.00 0.00 8.75 6.14
649.00 288.00 0.00 8.75 6.14
650.00 288.00 0.00 8.75 6.14
651.00 288.00 0.00 8.75 6.14
652.00 288.00 0.00 8.75 6.14
653.00 288.00 0.00 8.75 6.14
654.00 288.00 0.00 8.75 6.14
655.00 288.00 0.00 8.75 6.14
656.00 288.00 0.00 8.75 6.14
657.00 288.00 0.00 8.75 6.14
658.00 288.00 0.00 8.75 6.14
659.00 288.00 0.00 8.75 6.14
660.00 288.00 0.00 8.75 6.14
661.00 288.00 0.00 8.75 6.14
662.00 288.00 0.00 8.75 6.14
663.00 288.00 0.00 8.75 6.14
664.00 288.00 0.00 8.75 6.14
665.00 288.00 0.00 8.75 6.14
666.00 288.00 0.00 8.75 6.14
667.00 288.00 0.00 8.75 6.14
668.00 288.00 0.00 8.75 6.14
669.00 288.00 0.00 8.75 6.14
670.00 288.00 0.00 8.75 6.14
671.00 288.00 0.00 8.75 6.14
672.00 288.00 0.00 8.75 6.14
673.00 288.00 0.00 8.75 6.14
674.00 288.00 0.00 8.75 6.14
675.00 288.00 0.00 8.75 6.14
676.00 288.00 0.00 8.75 6.14
677.00 288.00 0.00 8.75 6.14
678.00 288.00 0.00 8.75 6.14
679.00 288.00 0.00 8.75 6.14
680.00 288.00 0.00 8.75 6.14
681.00 288.00 0.00 8.75 6.14
682.00 288.00 0.00 8.75 6.14
683.00 288.00 0.00 8.75 6.14
684.00 288.00 0.00 8.75 6.14
685.00 288.00 0.00 8.75 6.14
686.00 288.00 0.00 8.75 6.14
687.00 288.00 0.00 8.75 6.14
688.00 288.00 0.00 8.75 6.14
689.00 288.00 0.00 8.75 6.14
690.00 288.00 0.00 8.75 6.14
691.00 288.00 0.00 8.75 6.14
692.00 288.00 0.00 8.75 6.14
693.00 288.00 0.00 8.75 6.14
694.00 288.00 0.00 8.75 6.14
695.00 288.00 0.00 8.75 6.14
696.00 288.00 0.00 8.75 6.14
697.00 288.00 0.00 8.75 6.14
698.00 288.00 0.00 8.75 6.14
699.00 288.00 0.00 8.75 6.14
700.00 288.00 0.00 8.75 6.14
701.00 288.00 0.00 8.75 6.14
702.00 288.00 0.00 8.75 6.14
703.00 288.00 0.00 8.75 6.14
704.00 288.00 0.00 8.75 6.14
705.00 288.00 0.00 8.75 6.14
706.00 288.00 0.00 8.75 6.14
707.00 288.00 0.00 8.75 6.14
708.00 288.00 0.00 8.75 6.14
709.00 288.00 0.00 8.75 6.14
710.00 288.00 0.00 8.75 6.14
711.00 288.00 0.00 8.75 6.14
712.00 288.00 0.00 8.75 6.14
713.00 288.00 0.00 8.75 6.14
714.00 288.00 0.00 8.75 6.14
715.00 288.00 0.00 8.75 6.14
716.00 288.00 0.00 8.75 6.14
717.00 288.00 0.00 8.75 6.14
718.00 288.00 0.00 8.75 6.14
719.00 288.00 0.00 8.75 6.14
720.00 288.00 0.00 8.75 6.14
721.00 288.00 0.00 8.75 6.14
722.00 288.00 0.00 8.75 6.14
723.00 288.00 0.00 8.75 6.14
724.00 288.00 0.00 8.75 6.14
725.00 288.00 0.00 8.75 6.14
726.00 288.00 0.00 8.75 6.14
727.00 288.00 0.00 8.75 6.14
728.00 288.00 0.00 8.75 6.14
729.00 288.00 0.00 8.75 6.14
730.00 288.00 0.00 8.75 6.14
731.00 288.00 0.00 8.75 6.14
732.00 288.00 0.00 8.75 6.14
733.00 288.00 0.00 8.75 6.14
734.00 288.00 0.00 8.75 6.14
735.00 288.00 0.00 8.75 6.14
736.00 288.00 0.00 8.75 6.14
737.00 288.00 0.00 8.75 6.14
738.00 288.00 0.00 8.75 6.14
739.00 288.00 0.00 8.75 6.14
740.00 288.00 0.00 8.75 6.14
741.00 288.00 0.00 8.75 6.14
742.00 288.00 0.00 8.75 6.14
743.00 288.00 0.00 8.75 6.14
744.00 288.00 0.00 8.75 6.14
745.00 288.00 0.00 8.75 6.14
746.00 288.00 0.00 8.75 6.14
747.00 288.00 0.00 8.75 6.14
748.00 288.00 0.00 8.75 6.14
749.00 288.00 0.00 8.75 6.14
750.00 288.00 0.00 8.75 6.14
751.00 288.00 0.00 8.75 6.14
752.00 288.00 0.00 8.75 6.14
753.00 288.00 0.00 8.75 6.14
754.00 288.00 0.00 8.75 6.14
755.00 288.00 0.00 8.75 6.14
756.00 288.00 0.00 8.75 6.14
757.00 288.00 0.00 8.75 6.14
758.00 288.00 0.00 8.75 6.14
759.00 288.00 0.00 8.75 6.14
760.00 288.00 0.00 8.75 6.14
761.00 288.00 0.00 8.75 6.14
762.00 288.00 0.00 8.75 6.14
763.00 288.00 0.00 8.75 6.14
764.00 288.00 0.00 8.75 6.14
765.00 288.00 0.00 8.75 6.14
766.00 288.00 0.00 8.75 6.14
767.00 288.00 0.00 8.75 6.14
768.00 288.00 0.00 8.75 6.14
769.00 288.00 0.00 8.75 6.14
770.00 288.00 0.00 8.75 6.14
771.00 288.00 0.00 8.75 6.14
772.00 288.00 0.00 8.75 6.14
773.00 288.00 0.00 8.75 6.14
774.00 288.00 0.00 8.75 6.14
775.00 288.00 0.00 8.75 6.14
776.00 288.00 0.00 8.75 6.14
777.00 288.00 0.00 8.75 6.14
778.00 288.00 0.00 8.75 6.14
779.00 288.00 0.00 8.75 6.14
780.00 288.00 0.00 8.75 6.14
781.00 288.00 0.00 8.75 6.14
782.00 288.00 0.00 8.75 6.14
783.00 288.00 0.00 8.75 6.14
784.00 288.00 0.00 8.75 6.14
785.00 288.00 0.00 8.75 6.14
786.00 288.00 0.00 8.75 6.14
787.00 288.00 0.00 8.75 6.14
788.00 288.00 0.00 8.75 6.14
789.00 288.00 0.00 8.75 6.14
790.00 288.00 0.00 8.75 6.14
791.00 288.00 0.00 8.75 6.14
792.00 288.00 0.00 8.75 6.14
793.00 288.00 0.00 8.75 6.14
794.00 288.00 0.00 8.75 6.14
795.00 288.00 0.00 8.75 6.14
796.00 288.00 0.00 8.75 6.14
797.00 288.00 0.00 8.75 6.14
798.00 288.00 0.00 8.75 6.14
799.00 288.00 0.00 8.75 6.14
800.00 288.00 0.00 8.75 6.14
801.00 288.00 0.00 8.75 6.14
802.00 288.00 0.00 8.75 6.14
803.00 288.00 0.00 8.75 6.14
804.00 288.00 0.00 8.75 6.14
805.00 288.00 0.00 8.75 6.14
806.00 288.00 0.00 8.75 6.14
807.00 288.00 0.00 8.75 6.14
808.00 288.00 0.00 8.75 6.14
809.00 288.00 0.00 8.75 6.14
810.00 288.00 0.00 8.75 6.14
811.00 288.00 0.00 8.75 6.14
812.00 288.00 0.00 8.75 6.14
813.00 288.00 0.00 8.75 6.14
814.00 288.00 0.00 8.75 6.14
815.00 288.00 0.00 8.75 6.14
816.00 288.00 0.00 8.75 6.14
817.00 288.00 0.00 8.75 6.14
818.00 288.00 0.00 8.75 6.14
819.00 288.00 0.00 8.75 6.14
820.00 288.00 0.00 8.75 6.14
821.00 288.00 0.00 8.75 6.14
822.00 288.00 0.00 8.75 6.14
823.00 288.00 0.00 8.75 6.14
824.00 288.00 0.00 8.75 6.14
825.00 288.00 0.00 8.75 6.14
826.00 288.00 0.00 8.75 6.14
827.00 288.00 0.00 8.75 6.14
828.00 288.00 0.00 8.75 6.14
829.00 288.00 0.00 8.75 6.14
830.00 288.00 0.00 8.75 6.14
831.00 288.00 0.00 8.75 6.14
