1000.00 288.00 00.00
0.00 288.00 0.00 1.75 3.10
1.00 288.00 0.00 1.75 3.10
2.00 288.00 0.00 1.75 3.10
3.00 288.00 0.00 1.75 3.10
4.00 288.00 0.00 1.75 3.10
5.00 288.00 0.00 1.75 3.10
6.00 288.00 0.00 1.75 3.10
7.00 288.00 0.00 1.75 3.10
8.00 288.00 0.00 1.75 3.10
9.00 288.00 0.00 1.75 3.10
10.00 288.00 0.00 1.75 3.10
11.00 288.00 0.00 1.75 3.10
12.00 288.00 0.00 1.75 3.10
13.00 288.00 0.00 1.75 3.10
14.00 288.00 0.00 1.75 3.10
15.00 288.00 0.00 1.75 3.10
16.00 288.00 0.00 1.75 3.10
17.00 288.00 0.00 1.75 3.10
18.00 288.00 0.00 1.75 3.10
19.00 288.00 0.00 1.75 3.10
20.00 288.00 0.00 1.75 3.10
21.00 288.00 0.00 1.75 3.10
22.00 288.00 0.00 1.75 3.10
23.00 288.00 0.00 1.75 3.10
24.00 288.00 0.00 1.75 3.10
25.00 288.00 0.00 1.75 3.10
26.00 288.00 0.00 1.75 3.10
27.00 288.00 0.00 1.75 3.10
28.00 288.00 0.00 1.75 3.10
29.00 288.00 0.00 1.75 3.10
30.00 288.00 0.00 1.75 3.10
31.00 288.00 0.00 1.75 3.10
32.00 288.00 0.00 1.75 3.10
33.00 288.00 0.00 1.75 3.10
34.00 288.00 0.00 1.75 3.10
35.00 288.00 0.00 1.75 3.10
36.00 288.00 0.00 1.75 3.10
37.00 288.00 0.00 1.75 3.10
38.00 288.00 0.00 1.75 3.10
39.00 288.00 0.00 1.75 3.10
40.00 288.00 0.00 1.75 3.10
41.00 288.00 0.00 1.75 3.10
42.00 288.00 0.00 1.75 3.10
43.00 288.00 0.00 1.75 3.10
44.00 288.00 0.00 1.75 3.10
45.00 288.00 0.00 1.75 3.10
46.00 288.00 0.00 1.75 3.10
47.00 288.00 0.00 1.75 3.10
48.00 288.00 0.00 1.75 3.10
49.00 288.00 0.00 1.75 3.10
50.00 288.00 0.00 1.75 3.10
51.00 288.00 0.00 1.75 3.10
52.00 288.00 0.00 1.75 3.10
53.00 288.00 0.00 1.75 3.10
54.00 288.00 0.00 1.75 3.10
55.00 288.00 0.00 1.75 3.10
56.00 288.00 0.00 1.75 3.10
57.00 288.00 0.00 1.75 3.10
58.00 288.00 0.00 1.75 3.10
59.00 288.00 0.00 1.75 3.10
60.00 288.00 0.00 1.75 3.10
61.00 288.00 0.00 1.75 3.10
62.00 288.00 0.00 1.75 3.10
63.00 288.00 0.00 1.75 3.10
64.00 288.00 0.00 1.75 3.10
65.00 288.00 0.00 1.75 3.10
66.00 288.00 0.00 1.75 3.10
67.00 288.00 0.00 1.75 3.10
68.00 288.00 0.00 1.75 3.10
69.00 288.00 0.00 1.75 3.10
70.00 288.00 0.00 1.75 3.10
71.00 288.00 0.00 1.75 3.10
72.00 288.00 0.00 1.75 3.10
73.00 288.00 0.00 1.75 3.10
74.00 288.00 0.00 1.75 3.10
75.00 288.00 0.00 1.75 3.10
76.00 288.00 0.00 1.75 3.10
77.00 288.00 0.00 1.75 3.10
78.00 288.00 0.00 1.75 3.10
79.00 288.00 0.00 1.75 3.10
80.00 288.00 0.00 1.75 3.10
81.00 288.00 0.00 1.75 3.10
82.00 288.00 0.00 1.75 3.10
83.00 288.00 0.00 1.75 3.10
84.00 288.00 0.00 1.75 3.10
85.00 288.00 0.00 1.75 3.10
86.00 288.00 0.00 1.75 3.10
87.00 288.00 0.00 1.75 3.10
88.00 288.00 0.00 1.75 3.10
89.00 288.00 0.00 1.75 3.10
90.00 288.00 0.00 1.75 3.10
91.00 288.00 0.00 1.75 3.10
92.00 288.00 0.00 1.75 3.10
93.00 288.00 0.00 1.75 3.10
94.00 288.00 0.00 1.75 3.10
95.00 288.00 0.00 1.75 3.10
96.00 288.00 0.00 1.75 3.10
97.00 288.00 0.00 1.75 3.10
98.00 288.00 0.00 1.75 3.10
99.00 288.00 0.00 1.75 3.10
100.00 288.00 0.00 1.75 3.10
101.00 288.00 0.00 1.75 3.10
102.00 288.00 0.00 1.75 3.10
103.00 288.00 0.00 1.75 3.10
104.00 288.00 0.00 1.75 3.10
105.00 288.00 0.00 1.75 3.10
106.00 288.00 0.00 1.75 3.10
107.00 288.00 0.00 1.75 3.10
108.00 288.00 0.00 1.75 3.10
109.00 288.00 0.00 1.75 3.10
110.00 288.00 0.00 1.75 3.10
111.00 288.00 0.00 1.75 3.10
112.00 288.00 0.00 1.75 3.10
113.00 288.00 0.00 1.75 3.10
114.00 288.00 0.00 1.75 3.10
115.00 288.00 0.00 1.75 3.10
116.00 288.00 0.00 1.75 3.10
117.00 288.00 0.00 1.75 3.10
118.00 288.00 0.00 1.75 3.10
119.00 288.00 0.00 1.75 3.09
120.00 288.00 0.00 1.75 3.09
121.00 288.00 0.00 1.75 3.09
122.00 288.00 0.00 1.75 3.09
123.00 288.00 0.00 1.76 3.09
124.00 288.00 0.00 1.76 3.09
125.00 288.00 0.00 1.76 3.09
126.00 288.00 0.00 1.76 3.09
127.00 288.00 0.00 1.76 3.09
128.00 288.00 0.00 1.77 3.09
129.00 288.00 0.00 1.77 3.09
130.00 288.00 0.00 1.77 3.08
131.00 288.00 0.00 1.77 3.08
132.00 288.00 0.00 1.78 3.08
133.00 288.00 0.00 1.78 3.08
134.00 288.00 0.00 1.78 3.08
135.00 288.00 0.00 1.79 3.08
136.00 288.00 0.00 1.79 3.07
137.00 288.00 0.00 1.79 3.07
138.00 288.00 0.00 1.80 3.07
139.00 288.00 0.00 1.80 3.07
140.00 288.00 0.00 1.80 3.06
141.00 288.00 0.00 1.81 3.06
142.00 288.00 0.00 1.81 3.06
143.00 288.00 0.00 1.82 3.06
144.00 288.00 0.00 1.82 3.05
145.00 288.00 0.00 1.83 3.05
146.00 288.00 0.00 1.83 3.05
147.00 288.00 0.00 1.84 3.05
148.00 288.00 0.00 1.84 3.04
149.00 288.00 0.00 1.85 3.04
150.00 288.00 0.00 1.86 3.04
151.00 288.00 0.00 1.86 3.03
152.00 288.00 0.00 1.87 3.03
153.00 288.00 0.00 1.87 3.03
154.00 288.00 0.00 1.88 3.02
155.00 288.00 0.00 1.89 3.02
156.00 288.00 0.00 1.89 3.01
157.00 288.00 0.00 1.90 3.01
158.00 288.00 0.00 1.91 3.01
159.00 288.00 0.00 1.92 3.00
160.00 288.00 0.00 1.92 3.00
161.00 288.00 0.00 1.93 2.99
162.00 288.00 0.00 1.94 2.99
163.00 288.00 0.00 1.95 2.99
164.00 288.00 0.00 1.96 2.98
165.00 288.00 0.00 1.96 2.98
166.00 288.00 0.00 1.97 2.97
167.00 288.00 0.00 1.98 2.97
168.00 288.00 0.00 1.99 2.96
169.00 288.00 0.00 2.00 2.96
170.00 288.00 0.00 2.01 2.95
171.00 288.00 0.00 2.02 2.95
172.00 288.00 0.00 2.03 2.94
173.00 288.00 0.00 2.04 2.93
174.00 288.00 0.00 2.05 2.93
175.00 288.00 0.00 2.06 2.92
176.00 288.00 0.00 2.07 2.92
177.00 288.00 0.00 2.08 2.91
178.00 288.00 0.00 2.09 2.91
179.00 288.00 0.00 2.10 2.90
180.00 288.00 0.00 2.11 2.89
181.00 288.00 0.00 2.12 2.89
182.00 288.00 0.00 2.13 2.88
183.00 288.00 0.00 2.14 2.88
184.00 288.00 0.00 2.16 2.87
185.00 288.00 0.00 2.17 2.86
186.00 288.00 0.00 2.18 2.86
187.00 288.00 0.00 2.19 2.85
188.00 288.00 0.00 2.20 2.84
189.00 288.00 0.00 2.22 2.83
190.00 288.00 0.00 2.23 2.83
191.00 288.00 0.00 2.24 2.82
192.00 288.00 0.00 2.25 2.81
193.00 288.00 0.00 2.27 2.81
194.00 288.00 0.00 2.28 2.80
195.00 288.00 0.00 2.29 2.79
196.00 288.00 0.00 2.31 2.78
197.00 288.00 0.00 2.32 2.78
198.00 288.00 0.00 2.34 2.77
199.00 288.00 0.00 2.35 2.76
200.00 288.00 0.00 2.36 2.75
201.00 288.00 0.00 2.38 2.74
202.00 288.00 0.00 2.39 2.74
203.00 288.00 0.00 2.41 2.73
204.00 288.00 0.00 2.42 2.72
205.00 288.00 0.00 2.44 2.71
206.00 288.00 0.00 2.45 2.70
207.00 288.00 0.00 2.47 2.69
208.00 288.00 0.00 2.48 2.68
209.00 288.00 0.00 2.50 2.67
210.00 288.00 0.00 2.52 2.67
211.00 288.00 0.00 2.53 2.66
212.00 288.00 0.00 2.55 2.65
213.00 288.00 0.00 2.56 2.64
214.00 288.00 0.00 2.58 2.63
215.00 288.00 0.00 2.60 2.62
216.00 288.00 0.00 2.61 2.61
217.00 288.00 0.00 2.63 2.60
218.00 288.00 0.00 2.65 2.59
219.00 288.00 0.00 2.67 2.58
220.00 288.00 0.00 2.68 2.57
221.00 288.00 0.00 2.70 2.56
222.00 288.00 0.00 2.72 2.55
223.00 288.00 0.00 2.74 2.54
224.00 288.00 0.00 2.76 2.53
225.00 288.00 0.00 2.77 2.52
226.00 288.00 0.00 2.79 2.51
227.00 288.00 0.00 2.81 2.50
228.00 288.00 0.00 2.83 2.49
229.00 288.00 0.00 2.85 2.47
230.00 288.00 0.00 2.87 2.46
231.00 288.00 0.00 2.89 2.45
232.00 288.00 0.00 2.91 2.44
233.00 288.00 0.00 2.93 2.43
234.00 288.00 0.00 2.95 2.42
235.00 288.00 0.00 2.97 2.41
236.00 288.00 0.00 2.99 2.39
237.00 288.00 0.00 3.01 2.38
238.00 288.00 0.00 3.03 2.37
239.00 288.00 0.00 3.05 2.36
240.00 288.00 0.00 3.07 2.35
241.00 288.00 0.00 3.09 2.33
242.00 288.00 0.00 3.11 2.32
243.00 288.00 0.00 3.14 2.31
244.00 288.00 0.00 3.16 2.30
245.00 288.00 0.00 3.18 2.28
246.00 288.00 0.00 3.20 2.27
247.00 288.00 0.00 3.22 2.26
248.00 288.00 0.00 3.25 2.25
249.00 288.00 0.00 3.27 2.23
250.00 288.00 0.00 3.29 2.22
251.00 288.00 0.00 3.31 2.21
252.00 288.00 0.00 3.34 2.19
253.00 288.00 0.00 3.36 2.18
254.00 288.00 0.00 3.38 2.17
255.00 288.00 0.00 3.41 2.15
256.00 288.00 0.00 3.43 2.14
257.00 288.00 0.00 3.45 2.13
258.00 288.00 0.00 3.48 2.11
259.00 288.00 0.00 3.50 2.10
260.00 288.00 0.00 3.53 2.08
261.00 288.00 0.00 3.55 2.07
262.00 288.00 0.00 3.57 2.05
263.00 288.00 0.00 3.60 2.04
264.00 288.00 0.00 3.62 2.02
265.00 288.00 0.00 3.65 2.01
266.00 288.00 0.00 3.68 2.00
267.00 288.00 0.00 3.70 1.98
268.00 288.00 0.00 3.73 1.97
269.00 288.00 0.00 3.75 1.95
270.00 288.00 0.00 3.78 1.93
271.00 288.00 0.00 3.80 1.92
272.00 288.00 0.00 3.83 1.90
273.00 288.00 0.00 3.86 1.89
274.00 288.00 0.00 3.88 1.87
275.00 288.00 0.00 3.91 1.86
276.00 288.00 0.00 3.94 1.84
277.00 288.00 0.00 3.96 1.82
278.00 288.00 0.00 3.99 1.81
279.00 288.00 0.00 4.02 1.79
280.00 288.00 0.00 4.05 1.78
281.00 288.00 0.00 4.08 1.76
282.00 288.00 0.00 4.10 1.74
283.00 288.00 0.00 4.13 1.73
284.00 288.00 0.00 4.16 1.71
285.00 288.00 0.00 4.19 1.69
286.00 288.00 0.00 4.22 1.67
287.00 288.00 0.00 4.25 1.66
288.00 288.00 0.00 4.27 1.64
289.00 288.00 0.00 4.30 1.62
290.00 288.00 0.00 4.33 1.61
291.00 288.00 0.00 4.36 1.59
292.00 288.00 0.00 4.39 1.57
293.00 288.00 0.00 4.42 1.55
294.00 288.00 0.00 4.45 1.53
295.00 288.00 0.00 4.48 1.52
296.00 288.00 0.00 4.51 1.50
297.00 288.00 0.00 4.54 1.48
298.00 288.00 0.00 4.57 1.46
299.00 288.00 0.00 4.60 1.44
300.00 288.00 0.00 4.63 1.43
301.00 288.00 0.00 4.66 1.41
302.00 288.00 0.00 4.69 1.39
303.00 288.00 0.00 4.72 1.37
304.00 288.00 0.00 4.75 1.35
305.00 288.00 0.00 4.78 1.34
306.00 288.00 0.00 4.81 1.32
307.00 288.00 0.00 4.84 1.30
308.00 288.00 0.00 4.87 1.28
309.00 288.00 0.00 4.90 1.26
310.00 288.00 0.00 4.93 1.25
311.00 288.00 0.00 4.96 1.23
312.00 288.00 0.00 4.99 1.21
313.00 288.00 0.00 5.03 1.19
314.00 288.00 0.00 5.06 1.17
315.00 288.00 0.00 5.09 1.16
316.00 288.00 0.00 5.12 1.14
317.00 288.00 0.00 5.15 1.12
318.00 288.00 0.00 5.18 1.10
319.00 288.00 0.00 5.21 1.08
320.00 288.00 0.00 5.24 1.06
321.00 288.00 0.00 5.27 1.05
322.00 288.00 0.00 5.30 1.03
323.00 288.00 0.00 5.33 1.01
324.00 288.00 0.00 5.36 0.99
325.00 288.00 0.00 5.39 0.97
326.00 288.00 0.00 5.42 0.95
327.00 288.00 0.00 5.45 0.94
328.00 288.00 0.00 5.48 0.92
329.00 288.00 0.00 5.51 0.90
330.00 288.00 0.00 5.54 0.88
331.00 288.00 0.00 5.57 0.86
332.00 288.00 0.00 5.60 0.85
333.00 288.00 0.00 5.63 0.83
334.00 288.00 0.00 5.66 0.81
335.00 288.00 0.00 5.69 0.79
336.00 288.00 0.00 5.72 0.77
337.00 288.00 0.00 5.75 0.75
338.00 288.00 0.00 5.78 0.74
339.00 288.00 0.00 5.81 0.72
340.00 288.00 0.00 5.84 0.70
341.00 288.00 0.00 5.87 0.68
342.00 288.00 0.00 5.90 0.66
343.00 288.00 0.00 5.93 0.64
344.00 288.00 0.00 5.96 0.63
345.00 288.00 0.00 5.99 0.61
346.00 288.00 0.00 6.02 0.59
347.00 288.00 0.00 6.05 0.57
348.00 288.00 0.00 6.08 0.55
349.00 288.00 0.00 6.11 0.53
350.00 288.00 0.00 6.14 0.52
351.00 288.00 0.00 6.17 0.50
352.00 288.00 0.00 6.20 0.48
353.00 288.00 0.00 6.23 0.46
354.00 288.00 0.00 6.26 0.44
355.00 288.00 0.00 6.29 0.42
356.00 288.00 0.00 6.32 0.40
357.00 288.00 0.00 6.35 0.39
358.00 288.00 0.00 6.38 0.37
359.00 288.00 0.00 6.41 0.35
360.00 288.00 0.00 6.44 0.33
361.00 288.00 0.00 6.47 0.31
362.00 288.00 0.00 6.50 0.29
363.00 288.00 0.00 6.53 0.28
364.00 288.00 0.00 6.56 0.26
365.00 288.00 0.00 6.59 0.24
366.00 288.00 0.00 6.62 0.22
367.00 288.00 0.00 6.65 0.20
368.00 288.00 0.00 6.68 0.18
369.00 288.00 0.00 6.71 0.17
370.00 288.00 0.00 6.74 0.15
371.00 288.00 0.00 6.77 0.13
372.00 288.00 0.00 6.80 0.11
373.00 288.00 0.00 6.83 0.09
374.00 288.00 0.00 6.86 0.07
375.00 288.00 0.00 6.89 0.06
376.00 288.00 0.00 6.92 0.04
377.00 288.00 0.00 6.95 0.02
378.00 288.00 0.00 6.98 -0.00
379.00 288.00 0.00 7.02 -0.02
380.00 288.00 0.00 7.05 -0.04
381.00 288.00 0.00 7.08 -0.06
382.00 288.00 0.00 7.11 -0.07
383.00 288.00 0.00 7.14 -0.09
384.00 288.00 0.00 7.17 -0.11
385.00 288.00 0.00 7.20 -0.13
386.00 288.00 0.00 7.23 -0.15
387.00 288.00 0.00 7.26 -0.17
388.00 288.00 0.00 7.29 -0.18
389.00 288.00 0.00 7.32 -0.20
390.00 288.00 0.00 7.35 -0.22
391.00 288.00 0.00 7.38 -0.24
392.00 288.00 0.00 7.41 -0.26
393.00 288.00 0.00 7.44 -0.28
394.00 288.00 0.00 7.47 -0.29
395.00 288.00 0.00 7.50 -0.31
396.00 288.00 0.00 7.53 -0.33
397.00 288.00 0.00 7.56 -0.35
398.00 288.00 0.00 7.59 -0.37
399.00 288.00 0.00 7.62 -0.39
400.00 288.00 0.00 7.65 -0.40
401.00 288.00 0.00 7.68 -0.42
402.00 288.00 0.00 7.71 -0.44
403.00 288.00 0.00 7.74 -0.46
404.00 288.00 0.00 7.77 -0.48
405.00 288.00 0.00 7.80 -0.50
406.00 288.00 0.00 7.83 -0.52
407.00 288.00 0.00 7.86 -0.53
408.00 288.00 0.00 7.89 -0.55
409.00 288.00 0.00 7.92 -0.57
410.00 288.00 0.00 7.95 -0.59
411.00 288.00 0.00 7.98 -0.61
412.00 288.00 0.00 8.01 -0.63
413.00 288.00 0.00 8.04 -0.64
414.00 288.00 0.00 8.07 -0.66
415.00 288.00 0.00 8.10 -0.68
416.00 288.00 0.00 8.13 -0.70
417.00 288.00 0.00 8.16 -0.72
418.00 288.00 0.00 8.19 -0.74
419.00 288.00 0.00 8.22 -0.75
420.00 288.00 0.00 8.25 -0.77
421.00 288.00 0.00 8.28 -0.79
422.00 288.00 0.00 8.31 -0.81
423.00 288.00 0.00 8.34 -0.83
424.00 288.00 0.00 8.37 -0.85
425.00 288.00 0.00 8.40 -0.86
426.00 288.00 0.00 8.43 -0.88
427.00 288.00 0.00 8.46 -0.90
428.00 288.00 0.00 8.49 -0.92
429.00 288.00 0.00 8.52 -0.94
430.00 288.00 0.00 8.55 -0.95
431.00 288.00 0.00 8.58 -0.97
432.00 288.00 0.00 8.61 -0.99
433.00 288.00 0.00 8.64 -1.01
434.00 288.00 0.00 8.67 -1.03
435.00 288.00 0.00 8.70 -1.05
436.00 288.00 0.00 8.73 -1.06
437.00 288.00 0.00 8.76 -1.08
438.00 288.00 0.00 8.79 -1.10
439.00 288.00 0.00 8.82 -1.12
440.00 288.00 0.00 8.85 -1.14
441.00 288.00 0.00 8.88 -1.16
442.00 288.00 0.00 8.91 -1.17
443.00 288.00 0.00 8.94 -1.19
444.00 288.00 0.00 8.97 -1.21
445.00 288.00 0.00 9.01 -1.23
446.00 288.00 0.00 9.04 -1.25
447.00 288.00 0.00 9.07 -1.26
448.00 288.00 0.00 9.10 -1.28
449.00 288.00 0.00 9.13 -1.30
450.00 288.00 0.00 9.16 -1.32
451.00 288.00 0.00 9.19 -1.34
452.00 288.00 0.00 9.22 -1.35
453.00 288.00 0.00 9.25 -1.37
454.00 288.00 0.00 9.28 -1.39
455.00 288.00 0.00 9.31 -1.41
456.00 288.00 0.00 9.34 -1.43
457.00 288.00 0.00 9.37 -1.44
458.00 288.00 0.00 9.40 -1.46
459.00 288.00 0.00 9.43 -1.48
460.00 288.00 0.00 9.46 -1.50
461.00 288.00 0.00 9.49 -1.52
462.00 288.00 0.00 9.52 -1.53
463.00 288.00 0.00 9.55 -1.55
464.00 288.00 0.00 9.58 -1.57
465.00 288.00 0.00 9.61 -1.59
466.00 288.00 0.00 9.64 -1.61
467.00 288.00 0.00 9.67 -1.62
468.00 288.00 0.00 9.70 -1.64
469.00 288.00 0.00 9.73 -1.66
470.00 288.00 0.00 9.75 -1.67
471.00 288.00 0.00 9.78 -1.69
472.00 288.00 0.00 9.81 -1.71
473.00 288.00 0.00 9.84 -1.73
474.00 288.00 0.00 9.87 -1.74
475.00 288.00 0.00 9.90 -1.76
476.00 288.00 0.00 9.92 -1.78
477.00 288.00 0.00 9.95 -1.79
478.00 288.00 0.00 9.98 -1.81
479.00 288.00 0.00 10.01 -1.82
480.00 288.00 0.00 10.04 -1.84
481.00 288.00 0.00 10.06 -1.86
482.00 288.00 0.00 10.09 -1.87
483.00 288.00 0.00 10.12 -1.89
484.00 288.00 0.00 10.14 -1.90
485.00 288.00 0.00 10.17 -1.92
486.00 288.00 0.00 10.20 -1.93
487.00 288.00 0.00 10.22 -1.95
488.00 288.00 0.00 10.25 -1.97
489.00 288.00 0.00 10.27 -1.98
490.00 288.00 0.00 10.30 -2.00
491.00 288.00 0.00 10.32 -2.01
492.00 288.00 0.00 10.35 -2.02
493.00 288.00 0.00 10.38 -2.04
494.00 288.00 0.00 10.40 -2.05
495.00 288.00 0.00 10.43 -2.07
496.00 288.00 0.00 10.45 -2.08
497.00 288.00 0.00 10.47 -2.10
498.00 288.00 0.00 10.50 -2.11
499.00 288.00 0.00 10.52 -2.13
500.00 288.00 0.00 10.55 -2.14
501.00 288.00 0.00 10.57 -2.15
502.00 288.00 0.00 10.59 -2.17
503.00 288.00 0.00 10.62 -2.18
504.00 288.00 0.00 10.64 -2.19
505.00 288.00 0.00 10.66 -2.21
506.00 288.00 0.00 10.69 -2.22
507.00 288.00 0.00 10.71 -2.23
508.00 288.00 0.00 10.73 -2.25
509.00 288.00 0.00 10.75 -2.26
510.00 288.00 0.00 10.78 -2.27
511.00 288.00 0.00 10.80 -2.28
512.00 288.00 0.00 10.82 -2.30
513.00 288.00 0.00 10.84 -2.31
514.00 288.00 0.00 10.86 -2.32
515.00 288.00 0.00 10.89 -2.33
516.00 288.00 0.00 10.91 -2.35
517.00 288.00 0.00 10.93 -2.36
518.00 288.00 0.00 10.95 -2.37
519.00 288.00 0.00 10.97 -2.38
520.00 288.00 0.00 10.99 -2.39
521.00 288.00 0.00 11.01 -2.41
522.00 288.00 0.00 11.03 -2.42
523.00 288.00 0.00 11.05 -2.43
524.00 288.00 0.00 11.07 -2.44
525.00 288.00 0.00 11.09 -2.45
526.00 288.00 0.00 11.11 -2.46
527.00 288.00 0.00 11.13 -2.47
528.00 288.00 0.00 11.15 -2.49
529.00 288.00 0.00 11.17 -2.50
530.00 288.00 0.00 11.19 -2.51
531.00 288.00 0.00 11.21 -2.52
532.00 288.00 0.00 11.23 -2.53
533.00 288.00 0.00 11.24 -2.54
534.00 288.00 0.00 11.26 -2.55
535.00 288.00 0.00 11.28 -2.56
536.00 288.00 0.00 11.30 -2.57
537.00 288.00 0.00 11.32 -2.58
538.00 288.00 0.00 11.33 -2.59
539.00 288.00 0.00 11.35 -2.60
540.00 288.00 0.00 11.37 -2.61
541.00 288.00 0.00 11.39 -2.62
542.00 288.00 0.00 11.40 -2.63
543.00 288.00 0.00 11.42 -2.64
544.00 288.00 0.00 11.44 -2.65
545.00 288.00 0.00 11.45 -2.66
546.00 288.00 0.00 11.47 -2.67
547.00 288.00 0.00 11.48 -2.67
548.00 288.00 0.00 11.50 -2.68
549.00 288.00 0.00 11.52 -2.69
550.00 288.00 0.00 11.53 -2.70
551.00 288.00 0.00 11.55 -2.71
552.00 288.00 0.00 11.56 -2.72
553.00 288.00 0.00 11.58 -2.73
554.00 288.00 0.00 11.59 -2.74
555.00 288.00 0.00 11.61 -2.74
556.00 288.00 0.00 11.62 -2.75
557.00 288.00 0.00 11.64 -2.76
558.00 288.00 0.00 11.65 -2.77
559.00 288.00 0.00 11.66 -2.78
560.00 288.00 0.00 11.68 -2.78
561.00 288.00 0.00 11.69 -2.79
562.00 288.00 0.00 11.71 -2.80
563.00 288.00 0.00 11.72 -2.81
564.00 288.00 0.00 11.73 -2.81
565.00 288.00 0.00 11.75 -2.82
566.00 288.00 0.00 11.76 -2.83
567.00 288.00 0.00 11.77 -2.83
568.00 288.00 0.00 11.78 -2.84
569.00 288.00 0.00 11.80 -2.85
570.00 288.00 0.00 11.81 -2.86
571.00 288.00 0.00 11.82 -2.86
572.00 288.00 0.00 11.83 -2.87
573.00 288.00 0.00 11.84 -2.88
574.00 288.00 0.00 11.86 -2.88
575.00 288.00 0.00 11.87 -2.89
576.00 288.00 0.00 11.88 -2.89
577.00 288.00 0.00 11.89 -2.90
578.00 288.00 0.00 11.90 -2.91
579.00 288.00 0.00 11.91 -2.91
580.00 288.00 0.00 11.92 -2.92
581.00 288.00 0.00 11.93 -2.92
582.00 288.00 0.00 11.94 -2.93
583.00 288.00 0.00 11.95 -2.93
584.00 288.00 0.00 11.96 -2.94
585.00 288.00 0.00 11.97 -2.95
586.00 288.00 0.00 11.98 -2.95
587.00 288.00 0.00 11.99 -2.96
588.00 288.00 0.00 12.00 -2.96
589.00 288.00 0.00 12.01 -2.97
590.00 288.00 0.00 12.02 -2.97
591.00 288.00 0.00 12.03 -2.98
592.00 288.00 0.00 12.04 -2.98
593.00 288.00 0.00 12.04 -2.99
594.00 288.00 0.00 12.05 -2.99
595.00 288.00 0.00 12.06 -2.99
596.00 288.00 0.00 12.07 -3.00
597.00 288.00 0.00 12.08 -3.00
598.00 288.00 0.00 12.08 -3.01
599.00 288.00 0.00 12.09 -3.01
600.00 288.00 0.00 12.10 -3.01
601.00 288.00 0.00 12.11 -3.02
602.00 288.00 0.00 12.11 -3.02
603.00 288.00 0.00 12.12 -3.03
604.00 288.00 0.00 12.13 -3.03
605.00 288.00 0.00 12.13 -3.03
606.00 288.00 0.00 12.14 -3.04
607.00 288.00 0.00 12.14 -3.04
608.00 288.00 0.00 12.15 -3.04
609.00 288.00 0.00 12.16 -3.05
610.00 288.00 0.00 12.16 -3.05
611.00 288.00 0.00 12.17 -3.05
612.00 288.00 0.00 12.17 -3.05
613.00 288.00 0.00 12.18 -3.06
614.00 288.00 0.00 12.18 -3.06
615.00 288.00 0.00 12.19 -3.06
616.00 288.00 0.00 12.19 -3.06
617.00 288.00 0.00 12.20 -3.07
618.00 288.00 0.00 12.20 -3.07
619.00 288.00 0.00 12.20 -3.07
620.00 288.00 0.00 12.21 -3.07
621.00 288.00 0.00 12.21 -3.08
622.00 288.00 0.00 12.21 -3.08
623.00 288.00 0.00 12.22 -3.08
624.00 288.00 0.00 12.22 -3.08
625.00 288.00 0.00 12.22 -3.08
626.00 288.00 0.00 12.23 -3.08
627.00 288.00 0.00 12.23 -3.09
628.00 288.00 0.00 12.23 -3.09
629.00 288.00 0.00 12.23 -3.09
630.00 288.00 0.00 12.24 -3.09
631.00 288.00 0.00 12.24 -3.09
632.00 288.00 0.00 12.24 -3.09
633.00 288.00 0.00 12.24 -3.09
634.00 288.00 0.00 12.24 -3.09
635.00 288.00 0.00 12.25 -3.09
636.00 288.00 0.00 12.25 -3.09
637.00 288.00 0.00 12.25 -3.09
638.00 288.00 0.00 12.25 -3.10
639.00 288.00 0.00 12.25 -3.10
640.00 288.00 0.00 12.25 -3.10
641.00 288.00 0.00 12.25 -3.10
642.00 288.00 0.00 12.25 -3.10
643.00 288.00 0.00 12.25 -3.10
644.00 288.00 0.00 12.25 -3.10
645.00 288.00 0.00 12.25 -3.10
646.00 288.00 0.00 12.25 -3.10
647.00 288.00 0.00 12.25 -3.10
648.00 288.00 0.00 12.25 -3.10
649.00 288.00 0.00 12.25 -3.10
650.00 288.00 0.00 12.25 -3.10
651.00 288.00 0.00 12.25 -3.10
652.00 288.00 0.00 12.25 -3.10
653.00 288.00 0.00 12.25 -3.10
654.00 288.00 0.00 12.25 -3.10
655.00 288.00 0.00 12.25 -3.10
656.00 288.00 0.00 12.25 -3.10
657.00 288.00 0.00 12.25 -3.10
658.00 288.00 0.00 12.25 -3.10
659.00 288.00 0.00 12.25 -3.10
660.00 288.00 0.00 12.25 -3.10
661.00 288.00 0.00 12.25 -3.10
662.00 288.00 0.00 12.25 -3.10
663.00 288.00 0.00 12.25 -3.10
664.00 288.00 0.00 12.25 -3.10
665.00 288.00 0.00 12.25 -3.10
666.00 288.00 0.00 12.25 -3.10
667.00 288.00 0.00 12.25 -3.10
668.00 288.00 0.00 12.25 -3.10
669.00 288.00 0.00 12.25 -3.10
670.00 288.00 0.00 12.25 -3.10
671.00 288.00 0.00 12.25 -3.10
672.00 288.00 0.00 12.25 -3.10
673.00 288.00 0.00 12.25 -3.10
674.00 288.00 0.00 12.25 -3.10
675.00 288.00 0.00 12.25 -3.10
676.00 288.00 0.00 12.25 -3.10
677.00 288.00 0.00 12.25 -3.10
678.00 288.00 0.00 12.25 -3.10
679.00 288.00 0.00 12.25 -3.10
680.00 288.00 0.00 12.25 -3.10
681.00 288.00 0.00 12.25 -3.10
682.00 288.00 0.00 12.25 -3.10
683.00 288.00 0.00 12.25 -3.10
684.00 288.00 0.00 12.25 -3.10
685.00 288.00 0.00 12.25 -3.10
686.00 288.00 0.00 12.25 -3.10
687.00 288.00 0.00 12.25 -3.10
688.00 288.00 0.00 12.25 -3.10
689.00 288.00 0.00 12.25 -3.10
690.00 288.00 0.00 12.25 -3.10
691.00 288.00 0.00 12.25 -3.10
692.00 288.00 0.00 12.25 -3.10
693.00 288.00 0.00 12.25 -3.10
694.00 288.00 0.00 12.25 -3.10
695.00 288.00 0.00 12.25 -3.10
696.00 288.00 0.00 12.25 -3.10
697.00 288.00 0.00 12.25 -3.10
698.00 288.00 0.00 12.25 -3.10
699.00 288.00 0.00 12.25 -3.10
700.00 288.00 0.00 12.25 -3.10
701.00 288.00 0.00 12.25 -3.10
702.00 288.00 0.00 12.25 -3.10
703.00 288.00 0.00 12.25 -3.10
704.00 288.00 0.00 12.25 -3.10
705.00 288.00 0.00 12.25 -3.10
706.00 288.00 0.00 12.25 -3.10
707.00 288.00 0.00 12.25 -3.10
708.00 288.00 0.00 12.25 -3.10
709.00 288.00 0.00 12.25 -3.10
710.00 288.00 0.00 12.25 -3.10
711.00 288.00 0.00 12.25 -3.10
712.00 288.00 0.00 12.25 -3.10
713.00 288.00 0.00 12.25 -3.10
714.00 288.00 0.00 12.25 -3.10
715.00 288.00 0.00 12.25 -3.10
716.00 288.00 0.00 12.25 -3.10
717.00 288.00 0.00 12.25 -3.10
718.00 288.00 0.00 12.25 -3.10
719.00 288.00 0.00 12.25 -3.10
720.00 288.00 0.00 12.25 -3.10
721.00 288.00 0.00 12.25 -3.10
722.00 288.00 0.00 12.25 -3.10
723.00 288.00 0.00 12.25 -3.10
724.00 288.00 0.00 12.25 -3.10
725.00 288.00 0.00 12.25 -3.10
726.00 288.00 0.00 12.25 -3.10
727.00 288.00 0.00 12.25 -3.10
728.00 288.00 0.00 12.25 -3.10
729.00 288.00 0.00 12.25 -3.10
730.00 288.00 0.00 12.25 -3.10
731.00 288.00 0.00 12.25 -3.10
732.00 288.00 0.00 12.25 -3.10
733.00 288.00 0.00 12.25 -3.10
734.00 288.00 0.00 12.25 -3.10
735.00 288.00 0.00 12.25 -3.10
736.00 288.00 0.00 12.25 -3.10
737.00 288.00 0.00 12.25 -3.10
738.00 288.00 0.00 12.25 -3.10
739.00 288.00 0.00 12.25 -3.10
740.00 288.00 0.00 12.25 -3.10
741.00 288.00 0.00 12.25 -3.10
742.00 288.00 0.00 12.25 -3.10
743.00 288.00 0.00 12.25 -3.10
744.00 288.00 0.00 12.25 -3.10
745.00 288.00 0.00 12.25 -3.10
746.00 288.00 0.00 12.25 -3.10
747.00 288.00 0.00 12.25 -3.10
748.00 288.00 0.00 12.25 -3.10
749.00 288.00 0.00 12.25 -3.10
750.00 288.00 0.00 12.25 -3.10
751.00 288.00 0.00 12.25 -3.10
752.00 288.00 0.00 12.25 -3.10
753.00 288.00 0.00 12.25 -3.10
754.00 288.00 0.00 12.25 -3.10
755.00 288.00 0.00 12.25 -3.10
756.00 288.00 0.00 12.25 -3.10
757.00 288.00 0.00 12.25 -3.10
758.00 288.00 0.00 12.25 -3.10
759.00 288.00 0.00 12.25 -3.10
760.00 288.00 0.00 12.25 -3.10
761.00 288.00 0.00 12.25 -3.10
762.00 288.00 0.00 12.25 -3.10
763.00 288.00 0.00 12.25 -3.10
764.00 288.00 0.00 12.25 -3.10
765.00 288.00 0.00 12.25 -3.10
766.00 288.00 0.00 12.25 -3.10
767.00 288.00 0.00 12.25 -3.10
768.00 288.00 0.00 12.25 -3.10
769.00 288.00 0.00 12.25 -3.10
770.00 288.00 0.00 12.25 -3.10
771.00 288.00 0.00 12.25 -3.10
772.00 288.00 0.00 12.25 -3.10
773.00 288.00 0.00 12.25 -3.10
774.00 288.00 0.00 12.25 -3.10
775.00 288.00 0.00 12.25 -3.10
776.00 288.00 0.00 12.25 -3.10
777.00 288.00 0.00 12.25 -3.10
778.00 288.00 0.00 12.25 -3.10
779.00 288.00 0.00 12.25 -3.10
780.00 288.00 0.00 12.25 -3.10
781.00 288.00 0.00 12.25 -3.10
782.00 288.00 0.00 12.25 -3.10
783.00 288.00 0.00 12.25 -3.10
784.00 288.00 0.00 12.25 -3.10
785.00 288.00 0.00 12.25 -3.10
786.00 288.00 0.00 12.25 -3.10
787.00 288.00 0.00 12.25 -3.10
788.00 288.00 0.00 12.25 -3.10
789.00 288.00 0.00 12.25 -3.10
790.00 288.00 0.00 12.25 -3.10
791.00 288.00 0.00 12.25 -3.10
792.00 288.00 0.00 12.25 -3.10
793.00 288.00 0.00 12.25 -3.10
794.00 288.00 0.00 12.25 -3.10
795.00 288.00 0.00 12.25 -3.10
796.00 288.00 0.00 12.25 -3.10
797.00 288.00 0.00 12.25 -3.10
798.00 288.00 0.00 12.25 -3.10
799.00 288.00 0.00 12.25 -3.10
800.00 288.00 0.00 12.25 -3.10
801.00 288.00 0.00 12.25 -3.10
802.00 288.00 0.00 12.25 -3.10
803.00 288.00 0.00 12.25 -3.10
804.00 288.00 0.00 12.25 -3.10
805.00 288.00 0.00 12.25 -3.10
806.00 288.00 0.00 12.25 -3.10
807.00 288.00 0.00 12.25 -3.10
808.00 288.00 0.00 12.25 -3.10
809.00 288.00 0.00 12.25 -3.10
810.00 288.00 0.00 12.25 -3.10
811.00 288.00 0.00 12.25 -3.10
812.00 288.00 0.00 12.25 -3.10
813.00 288.00 0.00 12.25 -3.10
814.00 288.00 0.00 12.25 -3.10
815.00 288.00 0.00 12.25 -3.10
816.00 288.00 0.00 12.25 -3.10
817.00 288.00 0.00 12.25 -3.10
818.00 288.00 0.00 12.25 -3.10
819.00 288.00 0.00 12.25 -3.10
820.00 288.00 0.00 12.25 -3.10
821.00 288.00 0.00 12.25 -3.10
822.00 288.00 0.00 12.25 -3.10
823.00 288.00 0.00 12.25 -3.10
824.00 288.00 0.00 12.25 -3.10
825.00 288.00 0.00 12.25 -3.10
826.00 288.00 0.00 12.25 -3.10
827.00 288.00 0.00 12.25 -3.10
828.00 288.00 0.00 12.25 -3.10
829.00 288.00 0.00 12.25 -3.10
830.00 288.00 0.00 12.25 -3.10
831.00 288.00 0.00 12.25 -3.10
