1000.00 288.00 00.00
0.00 288.00 0.00 11.35 -1.58
1.00 288.00 0.00 11.35 -1.58
2.00 288.00 0.00 11.35 -1.58
3.00 288.00 0.00 11.35 -1.58
4.00 288.00 0.00 11.35 -1.58
5.00 288.00 0.00 11.35 -1.58
6.00 288.00 0.00 11.35 -1.58
7.00 288.00 0.00 11.35 -1.58
8.00 288.00 0.00 11.35 -1.58
9.00 288.00 0.00 11.35 -1.58
10.00 288.00 0.00 11.35 -1.58
11.00 288.00 0.00 11.35 -1.58
12.00 288.00 0.00 11.35 -1.58
13.00 288.00 0.00 11.35 -1.58
14.00 288.00 0.00 11.35 -1.58
15.00 288.00 0.00 11.35 -1.58
16.00 288.00 0.00 11.35 -1.58
17.00 288.00 0.00 11.35 -1.58
18.00 288.00 0.00 11.35 -1.58
19.00 288.00 0.00 11.35 -1.58
20.00 288.00 0.00 11.35 -1.58
21.00 288.00 0.00 11.35 -1.58
22.00 288.00 0.00 11.35 -1.58
23.00 288.00 0.00 11.35 -1.58
24.00 288.00 0.00 11.35 -1.58
25.00 288.00 0.00 11.35 -1.58
26.00 288.00 0.00 11.35 -1.58
27.00 288.00 0.00 11.35 -1.58
28.00 288.00 0.00 11.35 -1.58
29.00 288.00 0.00 11.35 -1.58
30.00 288.00 0.00 11.35 -1.58
31.00 288.00 0.00 11.35 -1.58
32.00 288.00 0.00 11.35 -1.58
33.00 288.00 0.00 11.35 -1.58
34.00 288.00 0.00 11.35 -1.58
35.00 288.00 0.00 11.35 -1.58
36.00 288.00 0.00 11.35 -1.58
37.00 288.00 0.00 11.35 -1.58
38.00 288.00 0.00 11.35 -1.58
39.00 288.00 0.00 11.35 -1.58
40.00 288.00 0.00 11.35 -1.58
41.00 288.00 0.00 11.35 -1.58
42.00 288.00 0.00 11.35 -1.58
43.00 288.00 0.00 11.35 -1.58
44.00 288.00 0.00 11.35 -1.58
45.00 288.00 0.00 11.35 -1.58
46.00 288.00 0.00 11.35 -1.58
47.00 288.00 0.00 11.35 -1.58
48.00 288.00 0.00 11.35 -1.58
49.00 288.00 0.00 11.35 -1.58
50.00 288.00 0.00 11.35 -1.58
51.00 288.00 0.00 11.35 -1.58
52.00 288.00 0.00 11.35 -1.58
53.00 288.00 0.00 11.35 -1.58
54.00 288.00 0.00 11.35 -1.58
55.00 288.00 0.00 11.35 -1.58
56.00 288.00 0.00 11.35 -1.58
57.00 288.00 0.00 11.35 -1.58
58.00 288.00 0.00 11.35 -1.58
59.00 288.00 0.00 11.35 -1.58
60.00 288.00 0.00 11.35 -1.58
61.00 288.00 0.00 11.35 -1.58
62.00 288.00 0.00 11.35 -1.58
63.00 288.00 0.00 11.35 -1.58
64.00 288.00 0.00 11.35 -1.58
65.00 288.00 0.00 11.35 -1.58
66.00 288.00 0.00 11.35 -1.58
67.00 288.00 0.00 11.35 -1.58
68.00 288.00 0.00 11.35 -1.58
69.00 288.00 0.00 11.35 -1.58
70.00 288.00 0.00 11.35 -1.58
71.00 288.00 0.00 11.35 -1.58
72.00 288.00 0.00 11.35 -1.58
73.00 288.00 0.00 11.35 -1.58
74.00 288.00 0.00 11.35 -1.58
75.00 288.00 0.00 11.35 -1.58
76.00 288.00 0.00 11.35 -1.58
77.00 288.00 0.00 11.35 -1.58
78.00 288.00 0.00 11.35 -1.58
79.00 288.00 0.00 11.35 -1.58
80.00 288.00 0.00 11.35 -1.58
81.00 288.00 0.00 11.35 -1.58
82.00 288.00 0.00 11.35 -1.58
83.00 288.00 0.00 11.35 -1.58
84.00 288.00 0.00 11.35 -1.58
85.00 288.00 0.00 11.35 -1.58
86.00 288.00 0.00 11.35 -1.58
87.00 288.00 0.00 11.35 -1.58
88.00 288.00 0.00 11.35 -1.58
89.00 288.00 0.00 11.35 -1.58
90.00 288.00 0.00 11.35 -1.58
91.00 288.00 0.00 11.35 -1.58
92.00 288.00 0.00 11.35 -1.58
93.00 288.00 0.00 11.35 -1.58
94.00 288.00 0.00 11.35 -1.58
95.00 288.00 0.00 11.35 -1.58
96.00 288.00 0.00 11.35 -1.58
97.00 288.00 0.00 11.35 -1.58
98.00 288.00 0.00 11.35 -1.58
99.00 288.00 0.00 11.35 -1.58
100.00 288.00 0.00 11.35 -1.58
101.00 288.00 0.00 11.35 -1.58
102.00 288.00 0.00 11.35 -1.58
103.00 288.00 0.00 11.35 -1.58
104.00 288.00 0.00 11.35 -1.58
105.00 288.00 0.00 11.35 -1.58
106.00 288.00 0.00 11.35 -1.58
107.00 288.00 0.00 11.35 -1.58
108.00 288.00 0.00 11.35 -1.58
109.00 288.00 0.00 11.35 -1.58
110.00 288.00 0.00 11.35 -1.58
111.00 288.00 0.00 11.35 -1.58
112.00 288.00 0.00 11.35 -1.58
113.00 288.00 0.00 11.35 -1.58
114.00 288.00 0.00 11.35 -1.58
115.00 288.00 0.00 11.35 -1.58
116.00 288.00 0.00 11.35 -1.58
117.00 288.00 0.00 11.35 -1.58
118.00 288.00 0.00 11.35 -1.58
119.00 288.00 0.00 11.35 -1.58
120.00 288.00 0.00 11.35 -1.58
121.00 288.00 0.00 11.35 -1.58
122.00 288.00 0.00 11.35 -1.58
123.00 288.00 0.00 11.35 -1.58
124.00 288.00 0.00 11.35 -1.58
125.00 288.00 0.00 11.35 -1.58
126.00 288.00 0.00 11.34 -1.58
127.00 288.00 0.00 11.34 -1.58
128.00 288.00 0.00 11.34 -1.58
129.00 288.00 0.00 11.34 -1.58
130.00 288.00 0.00 11.34 -1.58
131.00 288.00 0.00 11.33 -1.57
132.00 288.00 0.00 11.33 -1.57
133.00 288.00 0.00 11.33 -1.57
134.00 288.00 0.00 11.33 -1.57
135.00 288.00 0.00 11.32 -1.57
136.00 288.00 0.00 11.32 -1.57
137.00 288.00 0.00 11.32 -1.57
138.00 288.00 0.00 11.31 -1.57
139.00 288.00 0.00 11.31 -1.57
140.00 288.00 0.00 11.31 -1.56
141.00 288.00 0.00 11.30 -1.56
142.00 288.00 0.00 11.30 -1.56
143.00 288.00 0.00 11.30 -1.56
144.00 288.00 0.00 11.29 -1.56
145.00 288.00 0.00 11.29 -1.56
146.00 288.00 0.00 11.28 -1.56
147.00 288.00 0.00 11.28 -1.55
148.00 288.00 0.00 11.27 -1.55
149.00 288.00 0.00 11.27 -1.55
150.00 288.00 0.00 11.27 -1.55
151.00 288.00 0.00 11.26 -1.55
152.00 288.00 0.00 11.26 -1.55
153.00 288.00 0.00 11.25 -1.54
154.00 288.00 0.00 11.24 -1.54
155.00 288.00 0.00 11.24 -1.54
156.00 288.00 0.00 11.23 -1.54
157.00 288.00 0.00 11.23 -1.54
158.00 288.00 0.00 11.22 -1.53
159.00 288.00 0.00 11.22 -1.53
160.00 288.00 0.00 11.21 -1.53
161.00 288.00 0.00 11.20 -1.53
162.00 288.00 0.00 11.20 -1.52
163.00 288.00 0.00 11.19 -1.52
164.00 288.00 0.00 11.18 -1.52
165.00 288.00 0.00 11.18 -1.52
166.00 288.00 0.00 11.17 -1.51
167.00 288.00 0.00 11.16 -1.51
168.00 288.00 0.00 11.15 -1.51
169.00 288.00 0.00 11.15 -1.51
170.00 288.00 0.00 11.14 -1.50
171.00 288.00 0.00 11.13 -1.50
172.00 288.00 0.00 11.12 -1.50
173.00 288.00 0.00 11.11 -1.50
174.00 288.00 0.00 11.11 -1.49
175.00 288.00 0.00 11.10 -1.49
176.00 288.00 0.00 11.09 -1.49
177.00 288.00 0.00 11.08 -1.48
178.00 288.00 0.00 11.07 -1.48
179.00 288.00 0.00 11.06 -1.48
180.00 288.00 0.00 11.05 -1.47
181.00 288.00 0.00 11.05 -1.47
182.00 288.00 0.00 11.04 -1.47
183.00 288.00 0.00 11.03 -1.46
184.00 288.00 0.00 11.02 -1.46
185.00 288.00 0.00 11.01 -1.46
186.00 288.00 0.00 11.00 -1.45
187.00 288.00 0.00 10.99 -1.45
188.00 288.00 0.00 10.98 -1.45
189.00 288.00 0.00 10.97 -1.44
190.00 288.00 0.00 10.96 -1.44
191.00 288.00 0.00 10.95 -1.43
192.00 288.00 0.00 10.94 -1.43
193.00 288.00 0.00 10.92 -1.43
194.00 288.00 0.00 10.91 -1.42
195.00 288.00 0.00 10.90 -1.42
196.00 288.00 0.00 10.89 -1.41
197.00 288.00 0.00 10.88 -1.41
198.00 288.00 0.00 10.87 -1.41
199.00 288.00 0.00 10.86 -1.40
200.00 288.00 0.00 10.84 -1.40
201.00 288.00 0.00 10.83 -1.39
202.00 288.00 0.00 10.82 -1.39
203.00 288.00 0.00 10.81 -1.38
204.00 288.00 0.00 10.80 -1.38
205.00 288.00 0.00 10.78 -1.38
206.00 288.00 0.00 10.77 -1.37
207.00 288.00 0.00 10.76 -1.37
208.00 288.00 0.00 10.74 -1.36
209.00 288.00 0.00 10.73 -1.36
210.00 288.00 0.00 10.72 -1.35
211.00 288.00 0.00 10.71 -1.35
212.00 288.00 0.00 10.69 -1.34
213.00 288.00 0.00 10.68 -1.34
214.00 288.00 0.00 10.66 -1.33
215.00 288.00 0.00 10.65 -1.33
216.00 288.00 0.00 10.64 -1.32
217.00 288.00 0.00 10.62 -1.32
218.00 288.00 0.00 10.61 -1.31
219.00 288.00 0.00 10.59 -1.31
220.00 288.00 0.00 10.58 -1.30
221.00 288.00 0.00 10.56 -1.30
222.00 288.00 0.00 10.55 -1.29
223.00 288.00 0.00 10.53 -1.29
224.00 288.00 0.00 10.52 -1.28
225.00 288.00 0.00 10.50 -1.27
226.00 288.00 0.00 10.49 -1.27
227.00 288.00 0.00 10.47 -1.26
228.00 288.00 0.00 10.46 -1.26
229.00 288.00 0.00 10.44 -1.25
230.00 288.00 0.00 10.43 -1.25
231.00 288.00 0.00 10.41 -1.24
232.00 288.00 0.00 10.39 -1.23
233.00 288.00 0.00 10.38 -1.23
234.00 288.00 0.00 10.36 -1.22
235.00 288.00 0.00 10.34 -1.22
236.00 288.00 0.00 10.33 -1.21
237.00 288.00 0.00 10.31 -1.20
238.00 288.00 0.00 10.29 -1.20
239.00 288.00 0.00 10.27 -1.19
240.00 288.00 0.00 10.26 -1.18
241.00 288.00 0.00 10.24 -1.18
242.00 288.00 0.00 10.22 -1.17
243.00 288.00 0.00 10.20 -1.17
244.00 288.00 0.00 10.19 -1.16
245.00 288.00 0.00 10.17 -1.15
246.00 288.00 0.00 10.15 -1.15
247.00 288.00 0.00 10.13 -1.14
248.00 288.00 0.00 10.11 -1.13
249.00 288.00 0.00 10.09 -1.13
250.00 288.00 0.00 10.08 -1.12
251.00 288.00 0.00 10.06 -1.11
252.00 288.00 0.00 10.04 -1.11
253.00 288.00 0.00 10.02 -1.10
254.00 288.00 0.00 10.00 -1.09
255.00 288.00 0.00 9.98 -1.08
256.00 288.00 0.00 9.96 -1.08
257.00 288.00 0.00 9.94 -1.07
258.00 288.00 0.00 9.92 -1.06
259.00 288.00 0.00 9.90 -1.06
260.00 288.00 0.00 9.88 -1.05
261.00 288.00 0.00 9.86 -1.04
262.00 288.00 0.00 9.84 -1.03
263.00 288.00 0.00 9.82 -1.03
264.00 288.00 0.00 9.80 -1.02
265.00 288.00 0.00 9.78 -1.01
266.00 288.00 0.00 9.76 -1.00
267.00 288.00 0.00 9.74 -1.00
268.00 288.00 0.00 9.71 -0.99
269.00 288.00 0.00 9.69 -0.98
270.00 288.00 0.00 9.67 -0.97
271.00 288.00 0.00 9.65 -0.96
272.00 288.00 0.00 9.63 -0.96
273.00 288.00 0.00 9.61 -0.95
274.00 288.00 0.00 9.58 -0.94
275.00 288.00 0.00 9.56 -0.93
276.00 288.00 0.00 9.54 -0.92
277.00 288.00 0.00 9.52 -0.92
278.00 288.00 0.00 9.49 -0.91
279.00 288.00 0.00 9.47 -0.90
280.00 288.00 0.00 9.45 -0.89
281.00 288.00 0.00 9.43 -0.88
282.00 288.00 0.00 9.40 -0.87
283.00 288.00 0.00 9.38 -0.87
284.00 288.00 0.00 9.36 -0.86
285.00 288.00 0.00 9.33 -0.85
286.00 288.00 0.00 9.31 -0.84
287.00 288.00 0.00 9.28 -0.83
288.00 288.00 0.00 9.26 -0.82
289.00 288.00 0.00 9.24 -0.81
290.00 288.00 0.00 9.21 -0.80
291.00 288.00 0.00 9.19 -0.80
292.00 288.00 0.00 9.16 -0.79
293.00 288.00 0.00 9.14 -0.78
294.00 288.00 0.00 9.11 -0.77
295.00 288.00 0.00 9.09 -0.76
296.00 288.00 0.00 9.06 -0.75
297.00 288.00 0.00 9.04 -0.74
298.00 288.00 0.00 9.01 -0.73
299.00 288.00 0.00 8.99 -0.72
300.00 288.00 0.00 8.96 -0.71
301.00 288.00 0.00 8.94 -0.70
302.00 288.00 0.00 8.91 -0.70
303.00 288.00 0.00 8.89 -0.69
304.00 288.00 0.00 8.86 -0.68
305.00 288.00 0.00 8.84 -0.67
306.00 288.00 0.00 8.81 -0.66
307.00 288.00 0.00 8.79 -0.65
308.00 288.00 0.00 8.76 -0.64
309.00 288.00 0.00 8.74 -0.63
310.00 288.00 0.00 8.71 -0.62
311.00 288.00 0.00 8.69 -0.61
312.00 288.00 0.00 8.66 -0.60
313.00 288.00 0.00 8.64 -0.59
314.00 288.00 0.00 8.61 -0.59
315.00 288.00 0.00 8.59 -0.58
316.00 288.00 0.00 8.56 -0.57
317.00 288.00 0.00 8.54 -0.56
318.00 288.00 0.00 8.51 -0.55
319.00 288.00 0.00 8.49 -0.54
320.00 288.00 0.00 8.46 -0.53
321.00 288.00 0.00 8.44 -0.52
322.00 288.00 0.00 8.41 -0.51
323.00 288.00 0.00 8.39 -0.50
324.00 288.00 0.00 8.36 -0.49
325.00 288.00 0.00 8.34 -0.49
326.00 288.00 0.00 8.31 -0.48
327.00 288.00 0.00 8.29 -0.47
328.00 288.00 0.00 8.26 -0.46
329.00 288.00 0.00 8.24 -0.45
330.00 288.00 0.00 8.21 -0.44
331.00 288.00 0.00 8.19 -0.43
332.00 288.00 0.00 8.16 -0.42
333.00 288.00 0.00 8.14 -0.41
334.00 288.00 0.00 8.11 -0.40
335.00 288.00 0.00 8.09 -0.39
336.00 288.00 0.00 8.06 -0.38
337.00 288.00 0.00 8.04 -0.38
338.00 288.00 0.00 8.01 -0.37
339.00 288.00 0.00 7.99 -0.36
340.00 288.00 0.00 7.96 -0.35
341.00 288.00 0.00 7.94 -0.34
342.00 288.00 0.00 7.91 -0.33
343.00 288.00 0.00 7.89 -0.32
344.00 288.00 0.00 7.86 -0.31
345.00 288.00 0.00 7.84 -0.30
346.00 288.00 0.00 7.81 -0.29
347.00 288.00 0.00 7.79 -0.28
348.00 288.00 0.00 7.76 -0.27
349.00 288.00 0.00 7.74 -0.27
350.00 288.00 0.00 7.71 -0.26
351.00 288.00 0.00 7.69 -0.25
352.00 288.00 0.00 7.66 -0.24
353.00 288.00 0.00 7.64 -0.23
354.00 288.00 0.00 7.61 -0.22
355.00 288.00 0.00 7.59 -0.21
356.00 288.00 0.00 7.56 -0.20
357.00 288.00 0.00 7.54 -0.19
358.00 288.00 0.00 7.51 -0.18
359.00 288.00 0.00 7.49 -0.17
360.00 288.00 0.00 7.46 -0.16
361.00 288.00 0.00 7.44 -0.16
362.00 288.00 0.00 7.41 -0.15
363.00 288.00 0.00 7.39 -0.14
364.00 288.00 0.00 7.36 -0.13
365.00 288.00 0.00 7.34 -0.12
366.00 288.00 0.00 7.31 -0.11
367.00 288.00 0.00 7.29 -0.10
368.00 288.00 0.00 7.26 -0.09
369.00 288.00 0.00 7.24 -0.08
370.00 288.00 0.00 7.21 -0.07
371.00 288.00 0.00 7.19 -0.06
372.00 288.00 0.00 7.16 -0.05
373.00 288.00 0.00 7.14 -0.05
374.00 288.00 0.00 7.11 -0.04
375.00 288.00 0.00 7.09 -0.03
376.00 288.00 0.00 7.06 -0.02
377.00 288.00 0.00 7.04 -0.01
378.00 288.00 0.00 7.01 0.00
379.00 288.00 0.00 6.99 0.01
380.00 288.00 0.00 6.96 0.02
381.00 288.00 0.00 6.94 0.03
382.00 288.00 0.00 6.91 0.04
383.00 288.00 0.00 6.89 0.05
384.00 288.00 0.00 6.86 0.05
385.00 288.00 0.00 6.84 0.06
386.00 288.00 0.00 6.81 0.07
387.00 288.00 0.00 6.79 0.08
388.00 288.00 0.00 6.76 0.09
389.00 288.00 0.00 6.74 0.10
390.00 288.00 0.00 6.71 0.11
391.00 288.00 0.00 6.69 0.12
392.00 288.00 0.00 6.66 0.13
393.00 288.00 0.00 6.64 0.14
394.00 288.00 0.00 6.61 0.15
395.00 288.00 0.00 6.59 0.16
396.00 288.00 0.00 6.56 0.16
397.00 288.00 0.00 6.54 0.17
398.00 288.00 0.00 6.51 0.18
399.00 288.00 0.00 6.49 0.19
400.00 288.00 0.00 6.46 0.20
401.00 288.00 0.00 6.44 0.21
402.00 288.00 0.00 6.41 0.22
403.00 288.00 0.00 6.39 0.23
404.00 288.00 0.00 6.36 0.24
405.00 288.00 0.00 6.34 0.25
406.00 288.00 0.00 6.31 0.26
407.00 288.00 0.00 6.29 0.27
408.00 288.00 0.00 6.26 0.27
409.00 288.00 0.00 6.24 0.28
410.00 288.00 0.00 6.21 0.29
411.00 288.00 0.00 6.19 0.30
412.00 288.00 0.00 6.16 0.31
413.00 288.00 0.00 6.14 0.32
414.00 288.00 0.00 6.11 0.33
415.00 288.00 0.00 6.09 0.34
416.00 288.00 0.00 6.06 0.35
417.00 288.00 0.00 6.04 0.36
418.00 288.00 0.00 6.01 0.37
419.00 288.00 0.00 5.99 0.38
420.00 288.00 0.00 5.96 0.38
421.00 288.00 0.00 5.94 0.39
422.00 288.00 0.00 5.91 0.40
423.00 288.00 0.00 5.89 0.41
424.00 288.00 0.00 5.86 0.42
425.00 288.00 0.00 5.84 0.43
426.00 288.00 0.00 5.81 0.44
427.00 288.00 0.00 5.79 0.45
428.00 288.00 0.00 5.76 0.46
429.00 288.00 0.00 5.74 0.47
430.00 288.00 0.00 5.71 0.48
431.00 288.00 0.00 5.69 0.49
432.00 288.00 0.00 5.66 0.49
433.00 288.00 0.00 5.64 0.50
434.00 288.00 0.00 5.61 0.51
435.00 288.00 0.00 5.59 0.52
436.00 288.00 0.00 5.56 0.53
437.00 288.00 0.00 5.54 0.54
438.00 288.00 0.00 5.51 0.55
439.00 288.00 0.00 5.49 0.56
440.00 288.00 0.00 5.46 0.57
441.00 288.00 0.00 5.44 0.58
442.00 288.00 0.00 5.41 0.59
443.00 288.00 0.00 5.39 0.59
444.00 288.00 0.00 5.36 0.60
445.00 288.00 0.00 5.34 0.61
446.00 288.00 0.00 5.31 0.62
447.00 288.00 0.00 5.29 0.63
448.00 288.00 0.00 5.26 0.64
449.00 288.00 0.00 5.24 0.65
450.00 288.00 0.00 5.21 0.66
451.00 288.00 0.00 5.19 0.67
452.00 288.00 0.00 5.16 0.68
453.00 288.00 0.00 5.14 0.69
454.00 288.00 0.00 5.11 0.70
455.00 288.00 0.00 5.09 0.70
456.00 288.00 0.00 5.06 0.71
457.00 288.00 0.00 5.04 0.72
458.00 288.00 0.00 5.01 0.73
459.00 288.00 0.00 4.99 0.74
460.00 288.00 0.00 4.96 0.75
461.00 288.00 0.00 4.94 0.76
462.00 288.00 0.00 4.91 0.77
463.00 288.00 0.00 4.89 0.78
464.00 288.00 0.00 4.86 0.79
465.00 288.00 0.00 4.84 0.80
466.00 288.00 0.00 4.81 0.80
467.00 288.00 0.00 4.79 0.81
468.00 288.00 0.00 4.76 0.82
469.00 288.00 0.00 4.74 0.83
470.00 288.00 0.00 4.72 0.84
471.00 288.00 0.00 4.69 0.85
472.00 288.00 0.00 4.67 0.86
473.00 288.00 0.00 4.64 0.87
474.00 288.00 0.00 4.62 0.87
475.00 288.00 0.00 4.60 0.88
476.00 288.00 0.00 4.57 0.89
477.00 288.00 0.00 4.55 0.90
478.00 288.00 0.00 4.53 0.91
479.00 288.00 0.00 4.51 0.92
480.00 288.00 0.00 4.48 0.92
481.00 288.00 0.00 4.46 0.93
482.00 288.00 0.00 4.44 0.94
483.00 288.00 0.00 4.42 0.95
484.00 288.00 0.00 4.39 0.96
485.00 288.00 0.00 4.37 0.96
486.00 288.00 0.00 4.35 0.97
487.00 288.00 0.00 4.33 0.98
488.00 288.00 0.00 4.31 0.99
489.00 288.00 0.00 4.29 1.00
490.00 288.00 0.00 4.26 1.00
491.00 288.00 0.00 4.24 1.01
492.00 288.00 0.00 4.22 1.02
493.00 288.00 0.00 4.20 1.03
494.00 288.00 0.00 4.18 1.03
495.00 288.00 0.00 4.16 1.04
496.00 288.00 0.00 4.14 1.05
497.00 288.00 0.00 4.12 1.06
498.00 288.00 0.00 4.10 1.06
499.00 288.00 0.00 4.08 1.07
500.00 288.00 0.00 4.06 1.08
501.00 288.00 0.00 4.04 1.08
502.00 288.00 0.00 4.02 1.09
503.00 288.00 0.00 4.00 1.10
504.00 288.00 0.00 3.98 1.11
505.00 288.00 0.00 3.96 1.11
506.00 288.00 0.00 3.94 1.12
507.00 288.00 0.00 3.92 1.13
508.00 288.00 0.00 3.91 1.13
509.00 288.00 0.00 3.89 1.14
510.00 288.00 0.00 3.87 1.15
511.00 288.00 0.00 3.85 1.15
512.00 288.00 0.00 3.83 1.16
513.00 288.00 0.00 3.81 1.17
514.00 288.00 0.00 3.80 1.17
515.00 288.00 0.00 3.78 1.18
516.00 288.00 0.00 3.76 1.18
517.00 288.00 0.00 3.74 1.19
518.00 288.00 0.00 3.73 1.20
519.00 288.00 0.00 3.71 1.20
520.00 288.00 0.00 3.69 1.21
521.00 288.00 0.00 3.67 1.22
522.00 288.00 0.00 3.66 1.22
523.00 288.00 0.00 3.64 1.23
524.00 288.00 0.00 3.62 1.23
525.00 288.00 0.00 3.61 1.24
526.00 288.00 0.00 3.59 1.25
527.00 288.00 0.00 3.57 1.25
528.00 288.00 0.00 3.56 1.26
529.00 288.00 0.00 3.54 1.26
530.00 288.00 0.00 3.53 1.27
531.00 288.00 0.00 3.51 1.27
532.00 288.00 0.00 3.50 1.28
533.00 288.00 0.00 3.48 1.29
534.00 288.00 0.00 3.47 1.29
535.00 288.00 0.00 3.45 1.30
536.00 288.00 0.00 3.44 1.30
537.00 288.00 0.00 3.42 1.31
538.00 288.00 0.00 3.41 1.31
539.00 288.00 0.00 3.39 1.32
540.00 288.00 0.00 3.38 1.32
541.00 288.00 0.00 3.36 1.33
542.00 288.00 0.00 3.35 1.33
543.00 288.00 0.00 3.34 1.34
544.00 288.00 0.00 3.32 1.34
545.00 288.00 0.00 3.31 1.35
546.00 288.00 0.00 3.29 1.35
547.00 288.00 0.00 3.28 1.36
548.00 288.00 0.00 3.27 1.36
549.00 288.00 0.00 3.26 1.37
550.00 288.00 0.00 3.24 1.37
551.00 288.00 0.00 3.23 1.38
552.00 288.00 0.00 3.22 1.38
553.00 288.00 0.00 3.20 1.38
554.00 288.00 0.00 3.19 1.39
555.00 288.00 0.00 3.18 1.39
556.00 288.00 0.00 3.17 1.40
557.00 288.00 0.00 3.16 1.40
558.00 288.00 0.00 3.14 1.41
559.00 288.00 0.00 3.13 1.41
560.00 288.00 0.00 3.12 1.41
561.00 288.00 0.00 3.11 1.42
562.00 288.00 0.00 3.10 1.42
563.00 288.00 0.00 3.09 1.43
564.00 288.00 0.00 3.08 1.43
565.00 288.00 0.00 3.06 1.43
566.00 288.00 0.00 3.05 1.44
567.00 288.00 0.00 3.04 1.44
568.00 288.00 0.00 3.03 1.45
569.00 288.00 0.00 3.02 1.45
570.00 288.00 0.00 3.01 1.45
571.00 288.00 0.00 3.00 1.46
572.00 288.00 0.00 2.99 1.46
573.00 288.00 0.00 2.98 1.46
574.00 288.00 0.00 2.97 1.47
575.00 288.00 0.00 2.96 1.47
576.00 288.00 0.00 2.95 1.47
577.00 288.00 0.00 2.95 1.48
578.00 288.00 0.00 2.94 1.48
579.00 288.00 0.00 2.93 1.48
580.00 288.00 0.00 2.92 1.49
581.00 288.00 0.00 2.91 1.49
582.00 288.00 0.00 2.90 1.49
583.00 288.00 0.00 2.89 1.50
584.00 288.00 0.00 2.89 1.50
585.00 288.00 0.00 2.88 1.50
586.00 288.00 0.00 2.87 1.50
587.00 288.00 0.00 2.86 1.51
588.00 288.00 0.00 2.85 1.51
589.00 288.00 0.00 2.85 1.51
590.00 288.00 0.00 2.84 1.51
591.00 288.00 0.00 2.83 1.52
592.00 288.00 0.00 2.82 1.52
593.00 288.00 0.00 2.82 1.52
594.00 288.00 0.00 2.81 1.52
595.00 288.00 0.00 2.80 1.53
596.00 288.00 0.00 2.80 1.53
597.00 288.00 0.00 2.79 1.53
598.00 288.00 0.00 2.78 1.53
599.00 288.00 0.00 2.78 1.54
600.00 288.00 0.00 2.77 1.54
601.00 288.00 0.00 2.77 1.54
602.00 288.00 0.00 2.76 1.54
603.00 288.00 0.00 2.76 1.54
604.00 288.00 0.00 2.75 1.55
605.00 288.00 0.00 2.74 1.55
606.00 288.00 0.00 2.74 1.55
607.00 288.00 0.00 2.73 1.55
608.00 288.00 0.00 2.73 1.55
609.00 288.00 0.00 2.73 1.55
610.00 288.00 0.00 2.72 1.56
611.00 288.00 0.00 2.72 1.56
612.00 288.00 0.00 2.71 1.56
613.00 288.00 0.00 2.71 1.56
614.00 288.00 0.00 2.70 1.56
615.00 288.00 0.00 2.70 1.56
616.00 288.00 0.00 2.70 1.56
617.00 288.00 0.00 2.69 1.57
618.00 288.00 0.00 2.69 1.57
619.00 288.00 0.00 2.69 1.57
620.00 288.00 0.00 2.68 1.57
621.00 288.00 0.00 2.68 1.57
622.00 288.00 0.00 2.68 1.57
623.00 288.00 0.00 2.67 1.57
624.00 288.00 0.00 2.67 1.57
625.00 288.00 0.00 2.67 1.57
626.00 288.00 0.00 2.67 1.58
627.00 288.00 0.00 2.66 1.58
628.00 288.00 0.00 2.66 1.58
629.00 288.00 0.00 2.66 1.58
630.00 288.00 0.00 2.66 1.58
631.00 288.00 0.00 2.66 1.58
632.00 288.00 0.00 2.65 1.58
633.00 288.00 0.00 2.65 1.58
634.00 288.00 0.00 2.65 1.58
635.00 288.00 0.00 2.65 1.58
636.00 288.00 0.00 2.65 1.58
637.00 288.00 0.00 2.65 1.58
638.00 288.00 0.00 2.65 1.58
639.00 288.00 0.00 2.65 1.58
640.00 288.00 0.00 2.65 1.58
641.00 288.00 0.00 2.65 1.58
642.00 288.00 0.00 2.65 1.58
643.00 288.00 0.00 2.65 1.58
644.00 288.00 0.00 2.65 1.58
645.00 288.00 0.00 2.65 1.58
646.00 288.00 0.00 2.65 1.58
647.00 288.00 0.00 2.65 1.58
648.00 288.00 0.00 2.65 1.58
649.00 288.00 0.00 2.65 1.58
650.00 288.00 0.00 2.65 1.58
651.00 288.00 0.00 2.65 1.58
652.00 288.00 0.00 2.65 1.58
653.00 288.00 0.00 2.65 1.58
654.00 288.00 0.00 2.65 1.58
655.00 288.00 0.00 2.65 1.58
656.00 288.00 0.00 2.65 1.58
657.00 288.00 0.00 2.65 1.58
658.00 288.00 0.00 2.65 1.58
659.00 288.00 0.00 2.65 1.58
660.00 288.00 0.00 2.65 1.58
661.00 288.00 0.00 2.65 1.58
662.00 288.00 0.00 2.65 1.58
663.00 288.00 0.00 2.65 1.58
664.00 288.00 0.00 2.65 1.58
665.00 288.00 0.00 2.65 1.58
666.00 288.00 0.00 2.65 1.58
667.00 288.00 0.00 2.65 1.58
668.00 288.00 0.00 2.65 1.58
669.00 288.00 0.00 2.65 1.58
670.00 288.00 0.00 2.65 1.58
671.00 288.00 0.00 2.65 1.58
672.00 288.00 0.00 2.65 1.58
673.00 288.00 0.00 2.65 1.58
674.00 288.00 0.00 2.65 1.58
675.00 288.00 0.00 2.65 1.58
676.00 288.00 0.00 2.65 1.58
677.00 288.00 0.00 2.65 1.58
678.00 288.00 0.00 2.65 1.58
679.00 288.00 0.00 2.65 1.58
680.00 288.00 0.00 2.65 1.58
681.00 288.00 0.00 2.65 1.58
682.00 288.00 0.00 2.65 1.58
683.00 288.00 0.00 2.65 1.58
684.00 288.00 0.00 2.65 1.58
685.00 288.00 0.00 2.65 1.58
686.00 288.00 0.00 2.65 1.58
687.00 288.00 0.00 2.65 1.58
688.00 288.00 0.00 2.65 1.58
689.00 288.00 0.00 2.65 1.58
690.00 288.00 0.00 2.65 1.58
691.00 288.00 0.00 2.65 1.58
692.00 288.00 0.00 2.65 1.58
693.00 288.00 0.00 2.65 1.58
694.00 288.00 0.00 2.65 1.58
695.00 288.00 0.00 2.65 1.58
696.00 288.00 0.00 2.65 1.58
697.00 288.00 0.00 2.65 1.58
698.00 288.00 0.00 2.65 1.58
699.00 288.00 0.00 2.65 1.58
700.00 288.00 0.00 2.65 1.58
701.00 288.00 0.00 2.65 1.58
702.00 288.00 0.00 2.65 1.58
703.00 288.00 0.00 2.65 1.58
704.00 288.00 0.00 2.65 1.58
705.00 288.00 0.00 2.65 1.58
706.00 288.00 0.00 2.65 1.58
707.00 288.00 0.00 2.65 1.58
708.00 288.00 0.00 2.65 1.58
709.00 288.00 0.00 2.65 1.58
710.00 288.00 0.00 2.65 1.58
711.00 288.00 0.00 2.65 1.58
712.00 288.00 0.00 2.65 1.58
713.00 288.00 0.00 2.65 1.58
714.00 288.00 0.00 2.65 1.58
715.00 288.00 0.00 2.65 1.58
716.00 288.00 0.00 2.65 1.58
717.00 288.00 0.00 2.65 1.58
718.00 288.00 0.00 2.65 1.58
719.00 288.00 0.00 2.65 1.58
720.00 288.00 0.00 2.65 1.58
721.00 288.00 0.00 2.65 1.58
722.00 288.00 0.00 2.65 1.58
723.00 288.00 0.00 2.65 1.58
724.00 288.00 0.00 2.65 1.58
725.00 288.00 0.00 2.65 1.58
726.00 288.00 0.00 2.65 1.58
727.00 288.00 0.00 2.65 1.58
728.00 288.00 0.00 2.65 1.58
729.00 288.00 0.00 2.65 1.58
730.00 288.00 0.00 2.65 1.58
731.00 288.00 0.00 2.65 1.58
732.00 288.00 0.00 2.65 1.58
733.00 288.00 0.00 2.65 1.58
734.00 288.00 0.00 2.65 1.58
735.00 288.00 0.00 2.65 1.58
736.00 288.00 0.00 2.65 1.58
737.00 288.00 0.00 2.65 1.58
738.00 288.00 0.00 2.65 1.58
739.00 288.00 0.00 2.65 1.58
740.00 288.00 0.00 2.65 1.58
741.00 288.00 0.00 2.65 1.58
742.00 288.00 0.00 2.65 1.58
743.00 288.00 0.00 2.65 1.58
744.00 288.00 0.00 2.65 1.58
745.00 288.00 0.00 2.65 1.58
746.00 288.00 0.00 2.65 1.58
747.00 288.00 0.00 2.65 1.58
748.00 288.00 0.00 2.65 1.58
749.00 288.00 0.00 2.65 1.58
750.00 288.00 0.00 2.65 1.58
751.00 288.00 0.00 2.65 1.58
752.00 288.00 0.00 2.65 1.58
753.00 288.00 0.00 2.65 1.58
754.00 288.00 0.00 2.65 1.58
755.00 288.00 0.00 2.65 1.58
756.00 288.00 0.00 2.65 1.58
757.00 288.00 0.00 2.65 1.58
758.00 288.00 0.00 2.65 1.58
759.00 288.00 0.00 2.65 1.58
760.00 288.00 0.00 2.65 1.58
761.00 288.00 0.00 2.65 1.58
762.00 288.00 0.00 2.65 1.58
763.00 288.00 0.00 2.65 1.58
764.00 288.00 0.00 2.65 1.58
765.00 288.00 0.00 2.65 1.58
766.00 288.00 0.00 2.65 1.58
767.00 288.00 0.00 2.65 1.58
768.00 288.00 0.00 2.65 1.58
769.00 288.00 0.00 2.65 1.58
770.00 288.00 0.00 2.65 1.58
771.00 288.00 0.00 2.65 1.58
772.00 288.00 0.00 2.65 1.58
773.00 288.00 0.00 2.65 1.58
774.00 288.00 0.00 2.65 1.58
775.00 288.00 0.00 2.65 1.58
776.00 288.00 0.00 2.65 1.58
777.00 288.00 0.00 2.65 1.58
778.00 288.00 0.00 2.65 1.58
779.00 288.00 0.00 2.65 1.58
780.00 288.00 0.00 2.65 1.58
781.00 288.00 0.00 2.65 1.58
782.00 288.00 0.00 2.65 1.58
783.00 288.00 0.00 2.65 1.58
784.00 288.00 0.00 2.65 1.58
785.00 288.00 0.00 2.65 1.58
786.00 288.00 0.00 2.65 1.58
787.00 288.00 0.00 2.65 1.58
788.00 288.00 0.00 2.65 1.58
789.00 288.00 0.00 2.65 1.58
790.00 288.00 0.00 2.65 1.58
791.00 288.00 0.00 2.65 1.58
792.00 288.00 0.00 2.65 1.58
793.00 288.00 0.00 2.65 1.58
794.00 288.00 0.00 2.65 1.58
795.00 288.00 0.00 2.65 1.58
796.00 288.00 0.00 2.65 1.58
797.00 288.00 0.00 2.65 1.58
798.00 288.00 0.00 2.65 1.58
799.00 288.00 0.00 2.65 1.58
800.00 288.00 0.00 2.65 1.58
801.00 288.00 0.00 2.65 1.58
802.00 288.00 0.00 2.65 1.58
803.00 288.00 0.00 2.65 1.58
804.00 288.00 0.00 2.65 1.58
805.00 288.00 0.00 2.65 1.58
806.00 288.00 0.00 2.65 1.58
807.00 288.00 0.00 2.65 1.58
808.00 288.00 0.00 2.65 1.58
809.00 288.00 0.00 2.65 1.58
810.00 288.00 0.00 2.65 1.58
811.00 288.00 0.00 2.65 1.58
812.00 288.00 0.00 2.65 1.58
813.00 288.00 0.00 2.65 1.58
814.00 288.00 0.00 2.65 1.58
815.00 288.00 0.00 2.65 1.58
816.00 288.00 0.00 2.65 1.58
817.00 288.00 0.00 2.65 1.58
818.00 288.00 0.00 2.65 1.58
819.00 288.00 0.00 2.65 1.58
820.00 288.00 0.00 2.65 1.58
821.00 288.00 0.00 2.65 1.58
822.00 288.00 0.00 2.65 1.58
823.00 288.00 0.00 2.65 1.58
824.00 288.00 0.00 2.65 1.58
825.00 288.00 0.00 2.65 1.58
826.00 288.00 0.00 2.65 1.58
827.00 288.00 0.00 2.65 1.58
828.00 288.00 0.00 2.65 1.58
829.00 288.00 0.00 2.65 1.58
830.00 288.00 0.00 2.65 1.58
831.00 288.00 0.00 2.65 1.58
