1000.00 288.00 00.00
0.00 288.00 0.00 11.35 -1.42
1.00 288.00 0.00 11.35 -1.42
2.00 288.00 0.00 11.35 -1.42
3.00 288.00 0.00 11.35 -1.42
4.00 288.00 0.00 11.35 -1.42
5.00 288.00 0.00 11.35 -1.42
6.00 288.00 0.00 11.35 -1.42
7.00 288.00 0.00 11.35 -1.42
8.00 288.00 0.00 11.35 -1.42
9.00 288.00 0.00 11.35 -1.42
10.00 288.00 0.00 11.35 -1.42
11.00 288.00 0.00 11.35 -1.42
12.00 288.00 0.00 11.35 -1.42
13.00 288.00 0.00 11.35 -1.42
14.00 288.00 0.00 11.35 -1.42
15.00 288.00 0.00 11.35 -1.42
16.00 288.00 0.00 11.35 -1.42
17.00 288.00 0.00 11.35 -1.42
18.00 288.00 0.00 11.35 -1.42
19.00 288.00 0.00 11.35 -1.42
20.00 288.00 0.00 11.35 -1.42
21.00 288.00 0.00 11.35 -1.42
22.00 288.00 0.00 11.35 -1.42
23.00 288.00 0.00 11.35 -1.42
24.00 288.00 0.00 11.35 -1.42
25.00 288.00 0.00 11.35 -1.42
26.00 288.00 0.00 11.35 -1.42
27.00 288.00 0.00 11.35 -1.42
28.00 288.00 0.00 11.35 -1.42
29.00 288.00 0.00 11.35 -1.42
30.00 288.00 0.00 11.35 -1.42
31.00 288.00 0.00 11.35 -1.42
32.00 288.00 0.00 11.35 -1.42
33.00 288.00 0.00 11.35 -1.42
34.00 288.00 0.00 11.35 -1.42
35.00 288.00 0.00 11.35 -1.42
36.00 288.00 0.00 11.35 -1.42
37.00 288.00 0.00 11.35 -1.42
38.00 288.00 0.00 11.35 -1.42
39.00 288.00 0.00 11.35 -1.42
40.00 288.00 0.00 11.35 -1.42
41.00 288.00 0.00 11.35 -1.42
42.00 288.00 0.00 11.35 -1.42
43.00 288.00 0.00 11.35 -1.42
44.00 288.00 0.00 11.35 -1.42
45.00 288.00 0.00 11.35 -1.42
46.00 288.00 0.00 11.35 -1.42
47.00 288.00 0.00 11.35 -1.42
48.00 288.00 0.00 11.35 -1.42
49.00 288.00 0.00 11.35 -1.42
50.00 288.00 0.00 11.35 -1.42
51.00 288.00 0.00 11.35 -1.42
52.00 288.00 0.00 11.35 -1.42
53.00 288.00 0.00 11.35 -1.42
54.00 288.00 0.00 11.35 -1.42
55.00 288.00 0.00 11.35 -1.42
56.00 288.00 0.00 11.35 -1.42
57.00 288.00 0.00 11.35 -1.42
58.00 288.00 0.00 11.35 -1.42
59.00 288.00 0.00 11.35 -1.42
60.00 288.00 0.00 11.35 -1.42
61.00 288.00 0.00 11.35 -1.42
62.00 288.00 0.00 11.35 -1.42
63.00 288.00 0.00 11.35 -1.42
64.00 288.00 0.00 11.35 -1.42
65.00 288.00 0.00 11.35 -1.42
66.00 288.00 0.00 11.35 -1.42
67.00 288.00 0.00 11.35 -1.42
68.00 288.00 0.00 11.35 -1.42
69.00 288.00 0.00 11.35 -1.42
70.00 288.00 0.00 11.35 -1.42
71.00 288.00 0.00 11.35 -1.42
72.00 288.00 0.00 11.35 -1.42
73.00 288.00 0.00 11.35 -1.42
74.00 288.00 0.00 11.35 -1.42
75.00 288.00 0.00 11.35 -1.42
76.00 288.00 0.00 11.35 -1.42
77.00 288.00 0.00 11.35 -1.42
78.00 288.00 0.00 11.35 -1.42
79.00 288.00 0.00 11.35 -1.42
80.00 288.00 0.00 11.35 -1.42
81.00 288.00 0.00 11.35 -1.42
82.00 288.00 0.00 11.35 -1.42
83.00 288.00 0.00 11.35 -1.42
84.00 288.00 0.00 11.35 -1.42
85.00 288.00 0.00 11.35 -1.42
86.00 288.00 0.00 11.35 -1.42
87.00 288.00 0.00 11.35 -1.42
88.00 288.00 0.00 11.35 -1.42
89.00 288.00 0.00 11.35 -1.42
90.00 288.00 0.00 11.35 -1.42
91.00 288.00 0.00 11.35 -1.42
92.00 288.00 0.00 11.35 -1.42
93.00 288.00 0.00 11.35 -1.42
94.00 288.00 0.00 11.35 -1.42
95.00 288.00 0.00 11.35 -1.42
96.00 288.00 0.00 11.35 -1.42
97.00 288.00 0.00 11.35 -1.42
98.00 288.00 0.00 11.35 -1.42
99.00 288.00 0.00 11.35 -1.42
100.00 288.00 0.00 11.35 -1.42
101.00 288.00 0.00 11.35 -1.42
102.00 288.00 0.00 11.35 -1.42
103.00 288.00 0.00 11.35 -1.42
104.00 288.00 0.00 11.35 -1.42
105.00 288.00 0.00 11.35 -1.42
106.00 288.00 0.00 11.35 -1.42
107.00 288.00 0.00 11.35 -1.42
108.00 288.00 0.00 11.35 -1.42
109.00 288.00 0.00 11.35 -1.42
110.00 288.00 0.00 11.35 -1.42
111.00 288.00 0.00 11.35 -1.42
112.00 288.00 0.00 11.35 -1.42
113.00 288.00 0.00 11.35 -1.42
114.00 288.00 0.00 11.35 -1.42
115.00 288.00 0.00 11.35 -1.42
116.00 288.00 0.00 11.35 -1.42
117.00 288.00 0.00 11.35 -1.42
118.00 288.00 0.00 11.35 -1.42
119.00 288.00 0.00 11.35 -1.41
120.00 288.00 0.00 11.35 -1.41
121.00 288.00 0.00 11.35 -1.41
122.00 288.00 0.00 11.35 -1.41
123.00 288.00 0.00 11.35 -1.41
124.00 288.00 0.00 11.35 -1.41
125.00 288.00 0.00 11.35 -1.41
126.00 288.00 0.00 11.34 -1.41
127.00 288.00 0.00 11.34 -1.41
128.00 288.00 0.00 11.34 -1.41
129.00 288.00 0.00 11.34 -1.41
130.00 288.00 0.00 11.34 -1.41
131.00 288.00 0.00 11.33 -1.41
132.00 288.00 0.00 11.33 -1.41
133.00 288.00 0.00 11.33 -1.41
134.00 288.00 0.00 11.33 -1.41
135.00 288.00 0.00 11.32 -1.41
136.00 288.00 0.00 11.32 -1.40
137.00 288.00 0.00 11.32 -1.40
138.00 288.00 0.00 11.31 -1.40
139.00 288.00 0.00 11.31 -1.40
140.00 288.00 0.00 11.31 -1.40
141.00 288.00 0.00 11.30 -1.40
142.00 288.00 0.00 11.30 -1.40
143.00 288.00 0.00 11.30 -1.40
144.00 288.00 0.00 11.29 -1.40
145.00 288.00 0.00 11.29 -1.39
146.00 288.00 0.00 11.28 -1.39
147.00 288.00 0.00 11.28 -1.39
148.00 288.00 0.00 11.27 -1.39
149.00 288.00 0.00 11.27 -1.39
150.00 288.00 0.00 11.27 -1.39
151.00 288.00 0.00 11.26 -1.38
152.00 288.00 0.00 11.26 -1.38
153.00 288.00 0.00 11.25 -1.38
154.00 288.00 0.00 11.24 -1.38
155.00 288.00 0.00 11.24 -1.38
156.00 288.00 0.00 11.23 -1.38
157.00 288.00 0.00 11.23 -1.37
158.00 288.00 0.00 11.22 -1.37
159.00 288.00 0.00 11.22 -1.37
160.00 288.00 0.00 11.21 -1.37
161.00 288.00 0.00 11.20 -1.37
162.00 288.00 0.00 11.20 -1.36
163.00 288.00 0.00 11.19 -1.36
164.00 288.00 0.00 11.18 -1.36
165.00 288.00 0.00 11.18 -1.36
166.00 288.00 0.00 11.17 -1.36
167.00 288.00 0.00 11.16 -1.35
168.00 288.00 0.00 11.15 -1.35
169.00 288.00 0.00 11.15 -1.35
170.00 288.00 0.00 11.14 -1.35
171.00 288.00 0.00 11.13 -1.34
172.00 288.00 0.00 11.12 -1.34
173.00 288.00 0.00 11.11 -1.34
174.00 288.00 0.00 11.11 -1.34
175.00 288.00 0.00 11.10 -1.33
176.00 288.00 0.00 11.09 -1.33
177.00 288.00 0.00 11.08 -1.33
178.00 288.00 0.00 11.07 -1.32
179.00 288.00 0.00 11.06 -1.32
180.00 288.00 0.00 11.05 -1.32
181.00 288.00 0.00 11.05 -1.32
182.00 288.00 0.00 11.04 -1.31
183.00 288.00 0.00 11.03 -1.31
184.00 288.00 0.00 11.02 -1.31
185.00 288.00 0.00 11.01 -1.30
186.00 288.00 0.00 11.00 -1.30
187.00 288.00 0.00 10.99 -1.30
188.00 288.00 0.00 10.98 -1.29
189.00 288.00 0.00 10.97 -1.29
190.00 288.00 0.00 10.96 -1.29
191.00 288.00 0.00 10.95 -1.28
192.00 288.00 0.00 10.94 -1.28
193.00 288.00 0.00 10.92 -1.28
194.00 288.00 0.00 10.91 -1.27
195.00 288.00 0.00 10.90 -1.27
196.00 288.00 0.00 10.89 -1.27
197.00 288.00 0.00 10.88 -1.26
198.00 288.00 0.00 10.87 -1.26
199.00 288.00 0.00 10.86 -1.25
200.00 288.00 0.00 10.84 -1.25
201.00 288.00 0.00 10.83 -1.25
202.00 288.00 0.00 10.82 -1.24
203.00 288.00 0.00 10.81 -1.24
204.00 288.00 0.00 10.80 -1.23
205.00 288.00 0.00 10.78 -1.23
206.00 288.00 0.00 10.77 -1.23
207.00 288.00 0.00 10.76 -1.22
208.00 288.00 0.00 10.74 -1.22
209.00 288.00 0.00 10.73 -1.21
210.00 288.00 0.00 10.72 -1.21
211.00 288.00 0.00 10.71 -1.20
212.00 288.00 0.00 10.69 -1.20
213.00 288.00 0.00 10.68 -1.20
214.00 288.00 0.00 10.66 -1.19
215.00 288.00 0.00 10.65 -1.19
216.00 288.00 0.00 10.64 -1.18
217.00 288.00 0.00 10.62 -1.18
218.00 288.00 0.00 10.61 -1.17
219.00 288.00 0.00 10.59 -1.17
220.00 288.00 0.00 10.58 -1.16
221.00 288.00 0.00 10.56 -1.16
222.00 288.00 0.00 10.55 -1.15
223.00 288.00 0.00 10.53 -1.15
224.00 288.00 0.00 10.52 -1.14
225.00 288.00 0.00 10.50 -1.14
226.00 288.00 0.00 10.49 -1.13
227.00 288.00 0.00 10.47 -1.13
228.00 288.00 0.00 10.46 -1.12
229.00 288.00 0.00 10.44 -1.12
230.00 288.00 0.00 10.43 -1.11
231.00 288.00 0.00 10.41 -1.11
232.00 288.00 0.00 10.39 -1.10
233.00 288.00 0.00 10.38 -1.10
234.00 288.00 0.00 10.36 -1.09
235.00 288.00 0.00 10.34 -1.09
236.00 288.00 0.00 10.33 -1.08
237.00 288.00 0.00 10.31 -1.08
238.00 288.00 0.00 10.29 -1.07
239.00 288.00 0.00 10.27 -1.07
240.00 288.00 0.00 10.26 -1.06
241.00 288.00 0.00 10.24 -1.05
242.00 288.00 0.00 10.22 -1.05
243.00 288.00 0.00 10.20 -1.04
244.00 288.00 0.00 10.19 -1.04
245.00 288.00 0.00 10.17 -1.03
246.00 288.00 0.00 10.15 -1.02
247.00 288.00 0.00 10.13 -1.02
248.00 288.00 0.00 10.11 -1.01
249.00 288.00 0.00 10.09 -1.01
250.00 288.00 0.00 10.08 -1.00
251.00 288.00 0.00 10.06 -0.99
252.00 288.00 0.00 10.04 -0.99
253.00 288.00 0.00 10.02 -0.98
254.00 288.00 0.00 10.00 -0.98
255.00 288.00 0.00 9.98 -0.97
256.00 288.00 0.00 9.96 -0.96
257.00 288.00 0.00 9.94 -0.96
258.00 288.00 0.00 9.92 -0.95
259.00 288.00 0.00 9.90 -0.94
260.00 288.00 0.00 9.88 -0.94
261.00 288.00 0.00 9.86 -0.93
262.00 288.00 0.00 9.84 -0.92
263.00 288.00 0.00 9.82 -0.92
264.00 288.00 0.00 9.80 -0.91
265.00 288.00 0.00 9.78 -0.90
266.00 288.00 0.00 9.76 -0.90
267.00 288.00 0.00 9.74 -0.89
268.00 288.00 0.00 9.71 -0.88
269.00 288.00 0.00 9.69 -0.88
270.00 288.00 0.00 9.67 -0.87
271.00 288.00 0.00 9.65 -0.86
272.00 288.00 0.00 9.63 -0.85
273.00 288.00 0.00 9.61 -0.85
274.00 288.00 0.00 9.58 -0.84
275.00 288.00 0.00 9.56 -0.83
276.00 288.00 0.00 9.54 -0.83
277.00 288.00 0.00 9.52 -0.82
278.00 288.00 0.00 9.49 -0.81
279.00 288.00 0.00 9.47 -0.80
280.00 288.00 0.00 9.45 -0.80
281.00 288.00 0.00 9.43 -0.79
282.00 288.00 0.00 9.40 -0.78
283.00 288.00 0.00 9.38 -0.77
284.00 288.00 0.00 9.36 -0.77
285.00 288.00 0.00 9.33 -0.76
286.00 288.00 0.00 9.31 -0.75
287.00 288.00 0.00 9.28 -0.74
288.00 288.00 0.00 9.26 -0.73
289.00 288.00 0.00 9.24 -0.73
290.00 288.00 0.00 9.21 -0.72
291.00 288.00 0.00 9.19 -0.71
292.00 288.00 0.00 9.16 -0.70
293.00 288.00 0.00 9.14 -0.69
294.00 288.00 0.00 9.11 -0.69
295.00 288.00 0.00 9.09 -0.68
296.00 288.00 0.00 9.06 -0.67
297.00 288.00 0.00 9.04 -0.66
298.00 288.00 0.00 9.01 -0.65
299.00 288.00 0.00 8.99 -0.65
300.00 288.00 0.00 8.96 -0.64
301.00 288.00 0.00 8.94 -0.63
302.00 288.00 0.00 8.91 -0.62
303.00 288.00 0.00 8.89 -0.61
304.00 288.00 0.00 8.86 -0.60
305.00 288.00 0.00 8.84 -0.60
306.00 288.00 0.00 8.81 -0.59
307.00 288.00 0.00 8.79 -0.58
308.00 288.00 0.00 8.76 -0.57
309.00 288.00 0.00 8.74 -0.56
310.00 288.00 0.00 8.71 -0.56
311.00 288.00 0.00 8.69 -0.55
312.00 288.00 0.00 8.66 -0.54
313.00 288.00 0.00 8.64 -0.53
314.00 288.00 0.00 8.61 -0.52
315.00 288.00 0.00 8.59 -0.52
316.00 288.00 0.00 8.56 -0.51
317.00 288.00 0.00 8.54 -0.50
318.00 288.00 0.00 8.51 -0.49
319.00 288.00 0.00 8.49 -0.48
320.00 288.00 0.00 8.46 -0.47
321.00 288.00 0.00 8.44 -0.47
322.00 288.00 0.00 8.41 -0.46
323.00 288.00 0.00 8.39 -0.45
324.00 288.00 0.00 8.36 -0.44
325.00 288.00 0.00 8.34 -0.43
326.00 288.00 0.00 8.31 -0.43
327.00 288.00 0.00 8.29 -0.42
328.00 288.00 0.00 8.26 -0.41
329.00 288.00 0.00 8.24 -0.40
330.00 288.00 0.00 8.21 -0.39
331.00 288.00 0.00 8.19 -0.38
332.00 288.00 0.00 8.16 -0.38
333.00 288.00 0.00 8.14 -0.37
334.00 288.00 0.00 8.11 -0.36
335.00 288.00 0.00 8.09 -0.35
336.00 288.00 0.00 8.06 -0.34
337.00 288.00 0.00 8.04 -0.34
338.00 288.00 0.00 8.01 -0.33
339.00 288.00 0.00 7.99 -0.32
340.00 288.00 0.00 7.96 -0.31
341.00 288.00 0.00 7.94 -0.30
342.00 288.00 0.00 7.91 -0.29
343.00 288.00 0.00 7.89 -0.29
344.00 288.00 0.00 7.86 -0.28
345.00 288.00 0.00 7.84 -0.27
346.00 288.00 0.00 7.81 -0.26
347.00 288.00 0.00 7.79 -0.25
348.00 288.00 0.00 7.76 -0.25
349.00 288.00 0.00 7.74 -0.24
350.00 288.00 0.00 7.71 -0.23
351.00 288.00 0.00 7.69 -0.22
352.00 288.00 0.00 7.66 -0.21
353.00 288.00 0.00 7.64 -0.20
354.00 288.00 0.00 7.61 -0.20
355.00 288.00 0.00 7.59 -0.19
356.00 288.00 0.00 7.56 -0.18
357.00 288.00 0.00 7.54 -0.17
358.00 288.00 0.00 7.51 -0.16
359.00 288.00 0.00 7.49 -0.16
360.00 288.00 0.00 7.46 -0.15
361.00 288.00 0.00 7.44 -0.14
362.00 288.00 0.00 7.41 -0.13
363.00 288.00 0.00 7.39 -0.12
364.00 288.00 0.00 7.36 -0.11
365.00 288.00 0.00 7.34 -0.11
366.00 288.00 0.00 7.31 -0.10
367.00 288.00 0.00 7.29 -0.09
368.00 288.00 0.00 7.26 -0.08
369.00 288.00 0.00 7.24 -0.07
370.00 288.00 0.00 7.21 -0.07
371.00 288.00 0.00 7.19 -0.06
372.00 288.00 0.00 7.16 -0.05
373.00 288.00 0.00 7.14 -0.04
374.00 288.00 0.00 7.11 -0.03
375.00 288.00 0.00 7.09 -0.02
376.00 288.00 0.00 7.06 -0.02
377.00 288.00 0.00 7.04 -0.01
378.00 288.00 0.00 7.01 0.00
379.00 288.00 0.00 6.99 0.01
380.00 288.00 0.00 6.96 0.02
381.00 288.00 0.00 6.94 0.02
382.00 288.00 0.00 6.91 0.03
383.00 288.00 0.00 6.89 0.04
384.00 288.00 0.00 6.86 0.05
385.00 288.00 0.00 6.84 0.06
386.00 288.00 0.00 6.81 0.07
387.00 288.00 0.00 6.79 0.07
388.00 288.00 0.00 6.76 0.08
389.00 288.00 0.00 6.74 0.09
390.00 288.00 0.00 6.71 0.10
391.00 288.00 0.00 6.69 0.11
392.00 288.00 0.00 6.66 0.11
393.00 288.00 0.00 6.64 0.12
394.00 288.00 0.00 6.61 0.13
395.00 288.00 0.00 6.59 0.14
396.00 288.00 0.00 6.56 0.15
397.00 288.00 0.00 6.54 0.16
398.00 288.00 0.00 6.51 0.16
399.00 288.00 0.00 6.49 0.17
400.00 288.00 0.00 6.46 0.18
401.00 288.00 0.00 6.44 0.19
402.00 288.00 0.00 6.41 0.20
403.00 288.00 0.00 6.39 0.20
404.00 288.00 0.00 6.36 0.21
405.00 288.00 0.00 6.34 0.22
406.00 288.00 0.00 6.31 0.23
407.00 288.00 0.00 6.29 0.24
408.00 288.00 0.00 6.26 0.25
409.00 288.00 0.00 6.24 0.25
410.00 288.00 0.00 6.21 0.26
411.00 288.00 0.00 6.19 0.27
412.00 288.00 0.00 6.16 0.28
413.00 288.00 0.00 6.14 0.29
414.00 288.00 0.00 6.11 0.29
415.00 288.00 0.00 6.09 0.30
416.00 288.00 0.00 6.06 0.31
417.00 288.00 0.00 6.04 0.32
418.00 288.00 0.00 6.01 0.33
419.00 288.00 0.00 5.99 0.34
420.00 288.00 0.00 5.96 0.34
421.00 288.00 0.00 5.94 0.35
422.00 288.00 0.00 5.91 0.36
423.00 288.00 0.00 5.89 0.37
424.00 288.00 0.00 5.86 0.38
425.00 288.00 0.00 5.84 0.38
426.00 288.00 0.00 5.81 0.39
427.00 288.00 0.00 5.79 0.40
428.00 288.00 0.00 5.76 0.41
429.00 288.00 0.00 5.74 0.42
430.00 288.00 0.00 5.71 0.43
431.00 288.00 0.00 5.69 0.43
432.00 288.00 0.00 5.66 0.44
433.00 288.00 0.00 5.64 0.45
434.00 288.00 0.00 5.61 0.46
435.00 288.00 0.00 5.59 0.47
436.00 288.00 0.00 5.56 0.47
437.00 288.00 0.00 5.54 0.48
438.00 288.00 0.00 5.51 0.49
439.00 288.00 0.00 5.49 0.50
440.00 288.00 0.00 5.46 0.51
441.00 288.00 0.00 5.44 0.52
442.00 288.00 0.00 5.41 0.52
443.00 288.00 0.00 5.39 0.53
444.00 288.00 0.00 5.36 0.54
445.00 288.00 0.00 5.34 0.55
446.00 288.00 0.00 5.31 0.56
447.00 288.00 0.00 5.29 0.56
448.00 288.00 0.00 5.26 0.57
449.00 288.00 0.00 5.24 0.58
450.00 288.00 0.00 5.21 0.59
451.00 288.00 0.00 5.19 0.60
452.00 288.00 0.00 5.16 0.60
453.00 288.00 0.00 5.14 0.61
454.00 288.00 0.00 5.11 0.62
455.00 288.00 0.00 5.09 0.63
456.00 288.00 0.00 5.06 0.64
457.00 288.00 0.00 5.04 0.65
458.00 288.00 0.00 5.01 0.65
459.00 288.00 0.00 4.99 0.66
460.00 288.00 0.00 4.96 0.67
461.00 288.00 0.00 4.94 0.68
462.00 288.00 0.00 4.91 0.69
463.00 288.00 0.00 4.89 0.69
464.00 288.00 0.00 4.86 0.70
465.00 288.00 0.00 4.84 0.71
466.00 288.00 0.00 4.81 0.72
467.00 288.00 0.00 4.79 0.73
468.00 288.00 0.00 4.76 0.73
469.00 288.00 0.00 4.74 0.74
470.00 288.00 0.00 4.72 0.75
471.00 288.00 0.00 4.69 0.76
472.00 288.00 0.00 4.67 0.77
473.00 288.00 0.00 4.64 0.77
474.00 288.00 0.00 4.62 0.78
475.00 288.00 0.00 4.60 0.79
476.00 288.00 0.00 4.57 0.80
477.00 288.00 0.00 4.55 0.80
478.00 288.00 0.00 4.53 0.81
479.00 288.00 0.00 4.51 0.82
480.00 288.00 0.00 4.48 0.83
481.00 288.00 0.00 4.46 0.83
482.00 288.00 0.00 4.44 0.84
483.00 288.00 0.00 4.42 0.85
484.00 288.00 0.00 4.39 0.85
485.00 288.00 0.00 4.37 0.86
486.00 288.00 0.00 4.35 0.87
487.00 288.00 0.00 4.33 0.88
488.00 288.00 0.00 4.31 0.88
489.00 288.00 0.00 4.29 0.89
490.00 288.00 0.00 4.26 0.90
491.00 288.00 0.00 4.24 0.90
492.00 288.00 0.00 4.22 0.91
493.00 288.00 0.00 4.20 0.92
494.00 288.00 0.00 4.18 0.92
495.00 288.00 0.00 4.16 0.93
496.00 288.00 0.00 4.14 0.94
497.00 288.00 0.00 4.12 0.94
498.00 288.00 0.00 4.10 0.95
499.00 288.00 0.00 4.08 0.96
500.00 288.00 0.00 4.06 0.96
501.00 288.00 0.00 4.04 0.97
502.00 288.00 0.00 4.02 0.98
503.00 288.00 0.00 4.00 0.98
504.00 288.00 0.00 3.98 0.99
505.00 288.00 0.00 3.96 0.99
506.00 288.00 0.00 3.94 1.00
507.00 288.00 0.00 3.92 1.01
508.00 288.00 0.00 3.91 1.01
509.00 288.00 0.00 3.89 1.02
510.00 288.00 0.00 3.87 1.02
511.00 288.00 0.00 3.85 1.03
512.00 288.00 0.00 3.83 1.04
513.00 288.00 0.00 3.81 1.04
514.00 288.00 0.00 3.80 1.05
515.00 288.00 0.00 3.78 1.05
516.00 288.00 0.00 3.76 1.06
517.00 288.00 0.00 3.74 1.07
518.00 288.00 0.00 3.73 1.07
519.00 288.00 0.00 3.71 1.08
520.00 288.00 0.00 3.69 1.08
521.00 288.00 0.00 3.67 1.09
522.00 288.00 0.00 3.66 1.09
523.00 288.00 0.00 3.64 1.10
524.00 288.00 0.00 3.62 1.10
525.00 288.00 0.00 3.61 1.11
526.00 288.00 0.00 3.59 1.11
527.00 288.00 0.00 3.57 1.12
528.00 288.00 0.00 3.56 1.12
529.00 288.00 0.00 3.54 1.13
530.00 288.00 0.00 3.53 1.13
531.00 288.00 0.00 3.51 1.14
532.00 288.00 0.00 3.50 1.14
533.00 288.00 0.00 3.48 1.15
534.00 288.00 0.00 3.47 1.15
535.00 288.00 0.00 3.45 1.16
536.00 288.00 0.00 3.44 1.16
537.00 288.00 0.00 3.42 1.17
538.00 288.00 0.00 3.41 1.17
539.00 288.00 0.00 3.39 1.18
540.00 288.00 0.00 3.38 1.18
541.00 288.00 0.00 3.36 1.19
542.00 288.00 0.00 3.35 1.19
543.00 288.00 0.00 3.34 1.20
544.00 288.00 0.00 3.32 1.20
545.00 288.00 0.00 3.31 1.20
546.00 288.00 0.00 3.29 1.21
547.00 288.00 0.00 3.28 1.21
548.00 288.00 0.00 3.27 1.22
549.00 288.00 0.00 3.26 1.22
550.00 288.00 0.00 3.24 1.23
551.00 288.00 0.00 3.23 1.23
552.00 288.00 0.00 3.22 1.23
553.00 288.00 0.00 3.20 1.24
554.00 288.00 0.00 3.19 1.24
555.00 288.00 0.00 3.18 1.25
556.00 288.00 0.00 3.17 1.25
557.00 288.00 0.00 3.16 1.25
558.00 288.00 0.00 3.14 1.26
559.00 288.00 0.00 3.13 1.26
560.00 288.00 0.00 3.12 1.27
561.00 288.00 0.00 3.11 1.27
562.00 288.00 0.00 3.10 1.27
563.00 288.00 0.00 3.09 1.28
564.00 288.00 0.00 3.08 1.28
565.00 288.00 0.00 3.06 1.28
566.00 288.00 0.00 3.05 1.29
567.00 288.00 0.00 3.04 1.29
568.00 288.00 0.00 3.03 1.29
569.00 288.00 0.00 3.02 1.30
570.00 288.00 0.00 3.01 1.30
571.00 288.00 0.00 3.00 1.30
572.00 288.00 0.00 2.99 1.31
573.00 288.00 0.00 2.98 1.31
574.00 288.00 0.00 2.97 1.31
575.00 288.00 0.00 2.96 1.32
576.00 288.00 0.00 2.95 1.32
577.00 288.00 0.00 2.95 1.32
578.00 288.00 0.00 2.94 1.32
579.00 288.00 0.00 2.93 1.33
580.00 288.00 0.00 2.92 1.33
581.00 288.00 0.00 2.91 1.33
582.00 288.00 0.00 2.90 1.34
583.00 288.00 0.00 2.89 1.34
584.00 288.00 0.00 2.89 1.34
585.00 288.00 0.00 2.88 1.34
586.00 288.00 0.00 2.87 1.35
587.00 288.00 0.00 2.86 1.35
588.00 288.00 0.00 2.85 1.35
589.00 288.00 0.00 2.85 1.35
590.00 288.00 0.00 2.84 1.36
591.00 288.00 0.00 2.83 1.36
592.00 288.00 0.00 2.82 1.36
593.00 288.00 0.00 2.82 1.36
594.00 288.00 0.00 2.81 1.36
595.00 288.00 0.00 2.80 1.37
596.00 288.00 0.00 2.80 1.37
597.00 288.00 0.00 2.79 1.37
598.00 288.00 0.00 2.78 1.37
599.00 288.00 0.00 2.78 1.37
600.00 288.00 0.00 2.77 1.38
601.00 288.00 0.00 2.77 1.38
602.00 288.00 0.00 2.76 1.38
603.00 288.00 0.00 2.76 1.38
604.00 288.00 0.00 2.75 1.38
605.00 288.00 0.00 2.74 1.38
606.00 288.00 0.00 2.74 1.39
607.00 288.00 0.00 2.73 1.39
608.00 288.00 0.00 2.73 1.39
609.00 288.00 0.00 2.73 1.39
610.00 288.00 0.00 2.72 1.39
611.00 288.00 0.00 2.72 1.39
612.00 288.00 0.00 2.71 1.40
613.00 288.00 0.00 2.71 1.40
614.00 288.00 0.00 2.70 1.40
615.00 288.00 0.00 2.70 1.40
616.00 288.00 0.00 2.70 1.40
617.00 288.00 0.00 2.69 1.40
618.00 288.00 0.00 2.69 1.40
619.00 288.00 0.00 2.69 1.40
620.00 288.00 0.00 2.68 1.40
621.00 288.00 0.00 2.68 1.41
622.00 288.00 0.00 2.68 1.41
623.00 288.00 0.00 2.67 1.41
624.00 288.00 0.00 2.67 1.41
625.00 288.00 0.00 2.67 1.41
626.00 288.00 0.00 2.67 1.41
627.00 288.00 0.00 2.66 1.41
628.00 288.00 0.00 2.66 1.41
629.00 288.00 0.00 2.66 1.41
630.00 288.00 0.00 2.66 1.41
631.00 288.00 0.00 2.66 1.41
632.00 288.00 0.00 2.65 1.41
633.00 288.00 0.00 2.65 1.41
634.00 288.00 0.00 2.65 1.41
635.00 288.00 0.00 2.65 1.41
636.00 288.00 0.00 2.65 1.41
637.00 288.00 0.00 2.65 1.41
638.00 288.00 0.00 2.65 1.42
639.00 288.00 0.00 2.65 1.42
640.00 288.00 0.00 2.65 1.42
641.00 288.00 0.00 2.65 1.42
642.00 288.00 0.00 2.65 1.42
643.00 288.00 0.00 2.65 1.42
644.00 288.00 0.00 2.65 1.42
645.00 288.00 0.00 2.65 1.42
646.00 288.00 0.00 2.65 1.42
647.00 288.00 0.00 2.65 1.42
648.00 288.00 0.00 2.65 1.42
649.00 288.00 0.00 2.65 1.42
650.00 288.00 0.00 2.65 1.42
651.00 288.00 0.00 2.65 1.42
652.00 288.00 0.00 2.65 1.42
653.00 288.00 0.00 2.65 1.42
654.00 288.00 0.00 2.65 1.42
655.00 288.00 0.00 2.65 1.42
656.00 288.00 0.00 2.65 1.42
657.00 288.00 0.00 2.65 1.42
658.00 288.00 0.00 2.65 1.42
659.00 288.00 0.00 2.65 1.42
660.00 288.00 0.00 2.65 1.42
661.00 288.00 0.00 2.65 1.42
662.00 288.00 0.00 2.65 1.42
663.00 288.00 0.00 2.65 1.42
664.00 288.00 0.00 2.65 1.42
665.00 288.00 0.00 2.65 1.42
666.00 288.00 0.00 2.65 1.42
667.00 288.00 0.00 2.65 1.42
668.00 288.00 0.00 2.65 1.42
669.00 288.00 0.00 2.65 1.42
670.00 288.00 0.00 2.65 1.42
671.00 288.00 0.00 2.65 1.42
672.00 288.00 0.00 2.65 1.42
673.00 288.00 0.00 2.65 1.42
674.00 288.00 0.00 2.65 1.42
675.00 288.00 0.00 2.65 1.42
676.00 288.00 0.00 2.65 1.42
677.00 288.00 0.00 2.65 1.42
678.00 288.00 0.00 2.65 1.42
679.00 288.00 0.00 2.65 1.42
680.00 288.00 0.00 2.65 1.42
681.00 288.00 0.00 2.65 1.42
682.00 288.00 0.00 2.65 1.42
683.00 288.00 0.00 2.65 1.42
684.00 288.00 0.00 2.65 1.42
685.00 288.00 0.00 2.65 1.42
686.00 288.00 0.00 2.65 1.42
687.00 288.00 0.00 2.65 1.42
688.00 288.00 0.00 2.65 1.42
689.00 288.00 0.00 2.65 1.42
690.00 288.00 0.00 2.65 1.42
691.00 288.00 0.00 2.65 1.42
692.00 288.00 0.00 2.65 1.42
693.00 288.00 0.00 2.65 1.42
694.00 288.00 0.00 2.65 1.42
695.00 288.00 0.00 2.65 1.42
696.00 288.00 0.00 2.65 1.42
697.00 288.00 0.00 2.65 1.42
698.00 288.00 0.00 2.65 1.42
699.00 288.00 0.00 2.65 1.42
700.00 288.00 0.00 2.65 1.42
701.00 288.00 0.00 2.65 1.42
702.00 288.00 0.00 2.65 1.42
703.00 288.00 0.00 2.65 1.42
704.00 288.00 0.00 2.65 1.42
705.00 288.00 0.00 2.65 1.42
706.00 288.00 0.00 2.65 1.42
707.00 288.00 0.00 2.65 1.42
708.00 288.00 0.00 2.65 1.42
709.00 288.00 0.00 2.65 1.42
710.00 288.00 0.00 2.65 1.42
711.00 288.00 0.00 2.65 1.42
712.00 288.00 0.00 2.65 1.42
713.00 288.00 0.00 2.65 1.42
714.00 288.00 0.00 2.65 1.42
715.00 288.00 0.00 2.65 1.42
716.00 288.00 0.00 2.65 1.42
717.00 288.00 0.00 2.65 1.42
718.00 288.00 0.00 2.65 1.42
719.00 288.00 0.00 2.65 1.42
720.00 288.00 0.00 2.65 1.42
721.00 288.00 0.00 2.65 1.42
722.00 288.00 0.00 2.65 1.42
723.00 288.00 0.00 2.65 1.42
724.00 288.00 0.00 2.65 1.42
725.00 288.00 0.00 2.65 1.42
726.00 288.00 0.00 2.65 1.42
727.00 288.00 0.00 2.65 1.42
728.00 288.00 0.00 2.65 1.42
729.00 288.00 0.00 2.65 1.42
730.00 288.00 0.00 2.65 1.42
731.00 288.00 0.00 2.65 1.42
732.00 288.00 0.00 2.65 1.42
733.00 288.00 0.00 2.65 1.42
734.00 288.00 0.00 2.65 1.42
735.00 288.00 0.00 2.65 1.42
736.00 288.00 0.00 2.65 1.42
737.00 288.00 0.00 2.65 1.42
738.00 288.00 0.00 2.65 1.42
739.00 288.00 0.00 2.65 1.42
740.00 288.00 0.00 2.65 1.42
741.00 288.00 0.00 2.65 1.42
742.00 288.00 0.00 2.65 1.42
743.00 288.00 0.00 2.65 1.42
744.00 288.00 0.00 2.65 1.42
745.00 288.00 0.00 2.65 1.42
746.00 288.00 0.00 2.65 1.42
747.00 288.00 0.00 2.65 1.42
748.00 288.00 0.00 2.65 1.42
749.00 288.00 0.00 2.65 1.42
750.00 288.00 0.00 2.65 1.42
751.00 288.00 0.00 2.65 1.42
752.00 288.00 0.00 2.65 1.42
753.00 288.00 0.00 2.65 1.42
754.00 288.00 0.00 2.65 1.42
755.00 288.00 0.00 2.65 1.42
756.00 288.00 0.00 2.65 1.42
757.00 288.00 0.00 2.65 1.42
758.00 288.00 0.00 2.65 1.42
759.00 288.00 0.00 2.65 1.42
760.00 288.00 0.00 2.65 1.42
761.00 288.00 0.00 2.65 1.42
762.00 288.00 0.00 2.65 1.42
763.00 288.00 0.00 2.65 1.42
764.00 288.00 0.00 2.65 1.42
765.00 288.00 0.00 2.65 1.42
766.00 288.00 0.00 2.65 1.42
767.00 288.00 0.00 2.65 1.42
768.00 288.00 0.00 2.65 1.42
769.00 288.00 0.00 2.65 1.42
770.00 288.00 0.00 2.65 1.42
771.00 288.00 0.00 2.65 1.42
772.00 288.00 0.00 2.65 1.42
773.00 288.00 0.00 2.65 1.42
774.00 288.00 0.00 2.65 1.42
775.00 288.00 0.00 2.65 1.42
776.00 288.00 0.00 2.65 1.42
777.00 288.00 0.00 2.65 1.42
778.00 288.00 0.00 2.65 1.42
779.00 288.00 0.00 2.65 1.42
780.00 288.00 0.00 2.65 1.42
781.00 288.00 0.00 2.65 1.42
782.00 288.00 0.00 2.65 1.42
783.00 288.00 0.00 2.65 1.42
784.00 288.00 0.00 2.65 1.42
785.00 288.00 0.00 2.65 1.42
786.00 288.00 0.00 2.65 1.42
787.00 288.00 0.00 2.65 1.42
788.00 288.00 0.00 2.65 1.42
789.00 288.00 0.00 2.65 1.42
790.00 288.00 0.00 2.65 1.42
791.00 288.00 0.00 2.65 1.42
792.00 288.00 0.00 2.65 1.42
793.00 288.00 0.00 2.65 1.42
794.00 288.00 0.00 2.65 1.42
795.00 288.00 0.00 2.65 1.42
796.00 288.00 0.00 2.65 1.42
797.00 288.00 0.00 2.65 1.42
798.00 288.00 0.00 2.65 1.42
799.00 288.00 0.00 2.65 1.42
800.00 288.00 0.00 2.65 1.42
801.00 288.00 0.00 2.65 1.42
802.00 288.00 0.00 2.65 1.42
803.00 288.00 0.00 2.65 1.42
804.00 288.00 0.00 2.65 1.42
805.00 288.00 0.00 2.65 1.42
806.00 288.00 0.00 2.65 1.42
807.00 288.00 0.00 2.65 1.42
808.00 288.00 0.00 2.65 1.42
809.00 288.00 0.00 2.65 1.42
810.00 288.00 0.00 2.65 1.42
811.00 288.00 0.00 2.65 1.42
812.00 288.00 0.00 2.65 1.42
813.00 288.00 0.00 2.65 1.42
814.00 288.00 0.00 2.65 1.42
815.00 288.00 0.00 2.65 1.42
816.00 288.00 0.00 2.65 1.42
817.00 288.00 0.00 2.65 1.42
818.00 288.00 0.00 2.65 1.42
819.00 288.00 0.00 2.65 1.42
820.00 288.00 0.00 2.65 1.42
821.00 288.00 0.00 2.65 1.42
822.00 288.00 0.00 2.65 1.42
823.00 288.00 0.00 2.65 1.42
824.00 288.00 0.00 2.65 1.42
825.00 288.00 0.00 2.65 1.42
826.00 288.00 0.00 2.65 1.42
827.00 288.00 0.00 2.65 1.42
828.00 288.00 0.00 2.65 1.42
829.00 288.00 0.00 2.65 1.42
830.00 288.00 0.00 2.65 1.42
831.00 288.00 0.00 2.65 1.42
