1000.00 288.00 00.00
0.00 288.00 0.00 14.46 2.94
1.00 288.00 0.00 14.46 2.94
2.00 288.00 0.00 14.46 2.94
3.00 288.00 0.00 14.46 2.94
4.00 288.00 0.00 14.46 2.94
5.00 288.00 0.00 14.46 2.94
6.00 288.00 0.00 14.46 2.94
7.00 288.00 0.00 14.46 2.94
8.00 288.00 0.00 14.46 2.94
9.00 288.00 0.00 14.46 2.94
10.00 288.00 0.00 14.46 2.94
11.00 288.00 0.00 14.46 2.94
12.00 288.00 0.00 14.46 2.94
13.00 288.00 0.00 14.46 2.94
14.00 288.00 0.00 14.46 2.94
15.00 288.00 0.00 14.46 2.94
16.00 288.00 0.00 14.46 2.94
17.00 288.00 0.00 14.46 2.94
18.00 288.00 0.00 14.46 2.94
19.00 288.00 0.00 14.46 2.94
20.00 288.00 0.00 14.46 2.94
21.00 288.00 0.00 14.46 2.94
22.00 288.00 0.00 14.46 2.94
23.00 288.00 0.00 14.46 2.94
24.00 288.00 0.00 14.46 2.94
25.00 288.00 0.00 14.46 2.94
26.00 288.00 0.00 14.46 2.94
27.00 288.00 0.00 14.46 2.94
28.00 288.00 0.00 14.46 2.94
29.00 288.00 0.00 14.46 2.94
30.00 288.00 0.00 14.46 2.94
31.00 288.00 0.00 14.46 2.94
32.00 288.00 0.00 14.46 2.94
33.00 288.00 0.00 14.46 2.94
34.00 288.00 0.00 14.46 2.94
35.00 288.00 0.00 14.46 2.94
36.00 288.00 0.00 14.46 2.94
37.00 288.00 0.00 14.46 2.94
38.00 288.00 0.00 14.46 2.94
39.00 288.00 0.00 14.46 2.94
40.00 288.00 0.00 14.46 2.94
41.00 288.00 0.00 14.45 2.94
42.00 288.00 0.00 14.45 2.94
43.00 288.00 0.00 14.45 2.94
44.00 288.00 0.00 14.45 2.94
45.00 288.00 0.00 14.45 2.94
46.00 288.00 0.00 14.45 2.94
47.00 288.00 0.00 14.45 2.94
48.00 288.00 0.00 14.45 2.94
49.00 288.00 0.00 14.45 2.94
50.00 288.00 0.00 14.45 2.94
51.00 288.00 0.00 14.44 2.94
52.00 288.00 0.00 14.44 2.94
53.00 288.00 0.00 14.44 2.94
54.00 288.00 0.00 14.44 2.94
55.00 288.00 0.00 14.44 2.93
56.00 288.00 0.00 14.43 2.93
57.00 288.00 0.00 14.43 2.93
58.00 288.00 0.00 14.43 2.93
59.00 288.00 0.00 14.42 2.93
60.00 288.00 0.00 14.42 2.93
61.00 288.00 0.00 14.42 2.93
62.00 288.00 0.00 14.41 2.93
63.00 288.00 0.00 14.41 2.92
64.00 288.00 0.00 14.41 2.92
65.00 288.00 0.00 14.40 2.92
66.00 288.00 0.00 14.40 2.92
67.00 288.00 0.00 14.39 2.92
68.00 288.00 0.00 14.39 2.92
69.00 288.00 0.00 14.39 2.91
70.00 288.00 0.00 14.38 2.91
71.00 288.00 0.00 14.38 2.91
72.00 288.00 0.00 14.37 2.91
73.00 288.00 0.00 14.36 2.91
74.00 288.00 0.00 14.36 2.91
75.00 288.00 0.00 14.35 2.90
76.00 288.00 0.00 14.35 2.90
77.00 288.00 0.00 14.34 2.90
78.00 288.00 0.00 14.33 2.90
79.00 288.00 0.00 14.33 2.89
80.00 288.00 0.00 14.32 2.89
81.00 288.00 0.00 14.32 2.89
82.00 288.00 0.00 14.31 2.89
83.00 288.00 0.00 14.30 2.88
84.00 288.00 0.00 14.29 2.88
85.00 288.00 0.00 14.29 2.88
86.00 288.00 0.00 14.28 2.88
87.00 288.00 0.00 14.27 2.87
88.00 288.00 0.00 14.26 2.87
89.00 288.00 0.00 14.26 2.87
90.00 288.00 0.00 14.25 2.86
91.00 288.00 0.00 14.24 2.86
92.00 288.00 0.00 14.23 2.86
93.00 288.00 0.00 14.22 2.85
94.00 288.00 0.00 14.21 2.85
95.00 288.00 0.00 14.20 2.85
96.00 288.00 0.00 14.19 2.84
97.00 288.00 0.00 14.18 2.84
98.00 288.00 0.00 14.18 2.84
99.00 288.00 0.00 14.17 2.83
100.00 288.00 0.00 14.16 2.83
101.00 288.00 0.00 14.15 2.82
102.00 288.00 0.00 14.14 2.82
103.00 288.00 0.00 14.12 2.82
104.00 288.00 0.00 14.11 2.81
105.00 288.00 0.00 14.10 2.81
106.00 288.00 0.00 14.09 2.81
107.00 288.00 0.00 14.08 2.80
108.00 288.00 0.00 14.07 2.80
109.00 288.00 0.00 14.06 2.79
110.00 288.00 0.00 14.05 2.79
111.00 288.00 0.00 14.04 2.78
112.00 288.00 0.00 14.02 2.78
113.00 288.00 0.00 14.01 2.77
114.00 288.00 0.00 14.00 2.77
115.00 288.00 0.00 13.99 2.77
116.00 288.00 0.00 13.97 2.76
117.00 288.00 0.00 13.96 2.76
118.00 288.00 0.00 13.95 2.75
119.00 288.00 0.00 13.94 2.75
120.00 288.00 0.00 13.92 2.74
121.00 288.00 0.00 13.91 2.74
122.00 288.00 0.00 13.90 2.73
123.00 288.00 0.00 13.88 2.73
124.00 288.00 0.00 13.87 2.72
125.00 288.00 0.00 13.85 2.71
126.00 288.00 0.00 13.84 2.71
127.00 288.00 0.00 13.82 2.70
128.00 288.00 0.00 13.81 2.70
129.00 288.00 0.00 13.80 2.69
130.00 288.00 0.00 13.78 2.69
131.00 288.00 0.00 13.77 2.68
132.00 288.00 0.00 13.75 2.68
133.00 288.00 0.00 13.73 2.67
134.00 288.00 0.00 13.72 2.66
135.00 288.00 0.00 13.70 2.66
136.00 288.00 0.00 13.69 2.65
137.00 288.00 0.00 13.67 2.65
138.00 288.00 0.00 13.66 2.64
139.00 288.00 0.00 13.64 2.63
140.00 288.00 0.00 13.62 2.63
141.00 288.00 0.00 13.61 2.62
142.00 288.00 0.00 13.59 2.61
143.00 288.00 0.00 13.57 2.61
144.00 288.00 0.00 13.55 2.60
145.00 288.00 0.00 13.54 2.60
146.00 288.00 0.00 13.52 2.59
147.00 288.00 0.00 13.50 2.58
148.00 288.00 0.00 13.48 2.57
149.00 288.00 0.00 13.47 2.57
150.00 288.00 0.00 13.45 2.56
151.00 288.00 0.00 13.43 2.55
152.00 288.00 0.00 13.41 2.55
153.00 288.00 0.00 13.39 2.54
154.00 288.00 0.00 13.37 2.53
155.00 288.00 0.00 13.35 2.53
156.00 288.00 0.00 13.33 2.52
157.00 288.00 0.00 13.31 2.51
158.00 288.00 0.00 13.30 2.50
159.00 288.00 0.00 13.28 2.50
160.00 288.00 0.00 13.26 2.49
161.00 288.00 0.00 13.24 2.48
162.00 288.00 0.00 13.22 2.47
163.00 288.00 0.00 13.19 2.46
164.00 288.00 0.00 13.17 2.46
165.00 288.00 0.00 13.15 2.45
166.00 288.00 0.00 13.13 2.44
167.00 288.00 0.00 13.11 2.43
168.00 288.00 0.00 13.09 2.42
169.00 288.00 0.00 13.07 2.42
170.00 288.00 0.00 13.05 2.41
171.00 288.00 0.00 13.03 2.40
172.00 288.00 0.00 13.00 2.39
173.00 288.00 0.00 12.98 2.38
174.00 288.00 0.00 12.96 2.37
175.00 288.00 0.00 12.94 2.37
176.00 288.00 0.00 12.91 2.36
177.00 288.00 0.00 12.89 2.35
178.00 288.00 0.00 12.87 2.34
179.00 288.00 0.00 12.85 2.33
180.00 288.00 0.00 12.82 2.32
181.00 288.00 0.00 12.80 2.31
182.00 288.00 0.00 12.77 2.30
183.00 288.00 0.00 12.75 2.29
184.00 288.00 0.00 12.73 2.28
185.00 288.00 0.00 12.70 2.28
186.00 288.00 0.00 12.68 2.27
187.00 288.00 0.00 12.65 2.26
188.00 288.00 0.00 12.63 2.25
189.00 288.00 0.00 12.61 2.24
190.00 288.00 0.00 12.58 2.23
191.00 288.00 0.00 12.56 2.22
192.00 288.00 0.00 12.53 2.21
193.00 288.00 0.00 12.50 2.20
194.00 288.00 0.00 12.48 2.19
195.00 288.00 0.00 12.45 2.18
196.00 288.00 0.00 12.43 2.17
197.00 288.00 0.00 12.40 2.16
198.00 288.00 0.00 12.37 2.15
199.00 288.00 0.00 12.35 2.14
200.00 288.00 0.00 12.32 2.13
201.00 288.00 0.00 12.29 2.12
202.00 288.00 0.00 12.27 2.11
203.00 288.00 0.00 12.24 2.10
204.00 288.00 0.00 12.21 2.09
205.00 288.00 0.00 12.19 2.07
206.00 288.00 0.00 12.16 2.06
207.00 288.00 0.00 12.13 2.05
208.00 288.00 0.00 12.10 2.04
209.00 288.00 0.00 12.07 2.03
210.00 288.00 0.00 12.05 2.02
211.00 288.00 0.00 12.02 2.01
212.00 288.00 0.00 11.99 2.00
213.00 288.00 0.00 11.96 1.99
214.00 288.00 0.00 11.93 1.98
215.00 288.00 0.00 11.90 1.96
216.00 288.00 0.00 11.87 1.95
217.00 288.00 0.00 11.84 1.94
218.00 288.00 0.00 11.81 1.93
219.00 288.00 0.00 11.78 1.92
220.00 288.00 0.00 11.76 1.91
221.00 288.00 0.00 11.73 1.89
222.00 288.00 0.00 11.70 1.88
223.00 288.00 0.00 11.67 1.87
224.00 288.00 0.00 11.64 1.86
225.00 288.00 0.00 11.61 1.85
226.00 288.00 0.00 11.58 1.84
227.00 288.00 0.00 11.55 1.82
228.00 288.00 0.00 11.52 1.81
229.00 288.00 0.00 11.49 1.80
230.00 288.00 0.00 11.46 1.79
231.00 288.00 0.00 11.43 1.78
232.00 288.00 0.00 11.40 1.76
233.00 288.00 0.00 11.37 1.75
234.00 288.00 0.00 11.34 1.74
235.00 288.00 0.00 11.31 1.73
236.00 288.00 0.00 11.28 1.72
237.00 288.00 0.00 11.25 1.71
238.00 288.00 0.00 11.22 1.69
239.00 288.00 0.00 11.19 1.68
240.00 288.00 0.00 11.16 1.67
241.00 288.00 0.00 11.12 1.66
242.00 288.00 0.00 11.10 1.65
243.00 288.00 0.00 11.07 1.63
244.00 288.00 0.00 11.04 1.62
245.00 288.00 0.00 11.01 1.61
246.00 288.00 0.00 10.98 1.60
247.00 288.00 0.00 10.95 1.59
248.00 288.00 0.00 10.92 1.57
249.00 288.00 0.00 10.89 1.56
250.00 288.00 0.00 10.86 1.55
251.00 288.00 0.00 10.83 1.54
252.00 288.00 0.00 10.80 1.53
253.00 288.00 0.00 10.77 1.52
254.00 288.00 0.00 10.74 1.50
255.00 288.00 0.00 10.71 1.49
256.00 288.00 0.00 10.68 1.48
257.00 288.00 0.00 10.65 1.47
258.00 288.00 0.00 10.62 1.46
259.00 288.00 0.00 10.59 1.44
260.00 288.00 0.00 10.56 1.43
261.00 288.00 0.00 10.53 1.42
262.00 288.00 0.00 10.50 1.41
263.00 288.00 0.00 10.47 1.40
264.00 288.00 0.00 10.44 1.38
265.00 288.00 0.00 10.41 1.37
266.00 288.00 0.00 10.38 1.36
267.00 288.00 0.00 10.35 1.35
268.00 288.00 0.00 10.32 1.34
269.00 288.00 0.00 10.29 1.32
270.00 288.00 0.00 10.26 1.31
271.00 288.00 0.00 10.23 1.30
272.00 288.00 0.00 10.20 1.29
273.00 288.00 0.00 10.17 1.28
274.00 288.00 0.00 10.14 1.26
275.00 288.00 0.00 10.11 1.25
276.00 288.00 0.00 10.08 1.24
277.00 288.00 0.00 10.05 1.23
278.00 288.00 0.00 10.02 1.22
279.00 288.00 0.00 9.99 1.20
280.00 288.00 0.00 9.96 1.19
281.00 288.00 0.00 9.93 1.18
282.00 288.00 0.00 9.90 1.17
283.00 288.00 0.00 9.87 1.16
284.00 288.00 0.00 9.84 1.14
285.00 288.00 0.00 9.81 1.13
286.00 288.00 0.00 9.78 1.12
287.00 288.00 0.00 9.75 1.11
288.00 288.00 0.00 9.72 1.10
289.00 288.00 0.00 9.69 1.08
290.00 288.00 0.00 9.66 1.07
291.00 288.00 0.00 9.63 1.06
292.00 288.00 0.00 9.60 1.05
293.00 288.00 0.00 9.57 1.03
294.00 288.00 0.00 9.54 1.02
295.00 288.00 0.00 9.51 1.01
296.00 288.00 0.00 9.48 1.00
297.00 288.00 0.00 9.45 0.99
298.00 288.00 0.00 9.42 0.97
299.00 288.00 0.00 9.39 0.96
300.00 288.00 0.00 9.36 0.95
301.00 288.00 0.00 9.33 0.94
302.00 288.00 0.00 9.30 0.93
303.00 288.00 0.00 9.27 0.91
304.00 288.00 0.00 9.24 0.90
305.00 288.00 0.00 9.21 0.89
306.00 288.00 0.00 9.18 0.88
307.00 288.00 0.00 9.15 0.87
308.00 288.00 0.00 9.12 0.85
309.00 288.00 0.00 9.09 0.84
310.00 288.00 0.00 9.05 0.83
311.00 288.00 0.00 9.03 0.82
312.00 288.00 0.00 9.00 0.80
313.00 288.00 0.00 8.97 0.79
314.00 288.00 0.00 8.94 0.78
315.00 288.00 0.00 8.91 0.77
316.00 288.00 0.00 8.88 0.76
317.00 288.00 0.00 8.85 0.74
318.00 288.00 0.00 8.82 0.73
319.00 288.00 0.00 8.79 0.72
320.00 288.00 0.00 8.75 0.71
321.00 288.00 0.00 8.73 0.70
322.00 288.00 0.00 8.70 0.68
323.00 288.00 0.00 8.67 0.67
324.00 288.00 0.00 8.63 0.66
325.00 288.00 0.00 8.61 0.65
326.00 288.00 0.00 8.58 0.63
327.00 288.00 0.00 8.55 0.62
328.00 288.00 0.00 8.52 0.61
329.00 288.00 0.00 8.49 0.60
330.00 288.00 0.00 8.46 0.59
331.00 288.00 0.00 8.43 0.57
332.00 288.00 0.00 8.40 0.56
333.00 288.00 0.00 8.37 0.55
334.00 288.00 0.00 8.33 0.54
335.00 288.00 0.00 8.31 0.52
336.00 288.00 0.00 8.28 0.51
337.00 288.00 0.00 8.25 0.50
338.00 288.00 0.00 8.22 0.49
339.00 288.00 0.00 8.19 0.48
340.00 288.00 0.00 8.16 0.46
341.00 288.00 0.00 8.13 0.45
342.00 288.00 0.00 8.10 0.44
343.00 288.00 0.00 8.07 0.43
344.00 288.00 0.00 8.04 0.42
345.00 288.00 0.00 8.01 0.40
346.00 288.00 0.00 7.98 0.39
347.00 288.00 0.00 7.95 0.38
348.00 288.00 0.00 7.92 0.37
349.00 288.00 0.00 7.89 0.35
350.00 288.00 0.00 7.86 0.34
351.00 288.00 0.00 7.83 0.33
352.00 288.00 0.00 7.80 0.32
353.00 288.00 0.00 7.77 0.31
354.00 288.00 0.00 7.74 0.29
355.00 288.00 0.00 7.71 0.28
356.00 288.00 0.00 7.68 0.27
357.00 288.00 0.00 7.65 0.26
358.00 288.00 0.00 7.62 0.24
359.00 288.00 0.00 7.59 0.23
360.00 288.00 0.00 7.56 0.22
361.00 288.00 0.00 7.53 0.21
362.00 288.00 0.00 7.50 0.20
363.00 288.00 0.00 7.47 0.18
364.00 288.00 0.00 7.44 0.17
365.00 288.00 0.00 7.41 0.16
366.00 288.00 0.00 7.38 0.15
367.00 288.00 0.00 7.35 0.13
368.00 288.00 0.00 7.32 0.12
369.00 288.00 0.00 7.29 0.11
370.00 288.00 0.00 7.26 0.10
371.00 288.00 0.00 7.23 0.09
372.00 288.00 0.00 7.20 0.07
373.00 288.00 0.00 7.17 0.06
374.00 288.00 0.00 7.14 0.05
375.00 288.00 0.00 7.10 0.04
376.00 288.00 0.00 7.08 0.02
377.00 288.00 0.00 7.05 0.01
378.00 288.00 0.00 7.02 -0.00
379.00 288.00 0.00 6.99 -0.01
380.00 288.00 0.00 6.96 -0.02
381.00 288.00 0.00 6.93 -0.04
382.00 288.00 0.00 6.90 -0.05
383.00 288.00 0.00 6.87 -0.06
384.00 288.00 0.00 6.84 -0.07
385.00 288.00 0.00 6.81 -0.09
386.00 288.00 0.00 6.78 -0.10
387.00 288.00 0.00 6.75 -0.11
388.00 288.00 0.00 6.72 -0.12
389.00 288.00 0.00 6.69 -0.13
390.00 288.00 0.00 6.66 -0.15
391.00 288.00 0.00 6.63 -0.16
392.00 288.00 0.00 6.60 -0.17
393.00 288.00 0.00 6.56 -0.18
394.00 288.00 0.00 6.54 -0.20
395.00 288.00 0.00 6.51 -0.21
396.00 288.00 0.00 6.48 -0.22
397.00 288.00 0.00 6.45 -0.23
398.00 288.00 0.00 6.42 -0.24
399.00 288.00 0.00 6.39 -0.26
400.00 288.00 0.00 6.36 -0.27
401.00 288.00 0.00 6.33 -0.28
402.00 288.00 0.00 6.30 -0.29
403.00 288.00 0.00 6.27 -0.31
404.00 288.00 0.00 6.24 -0.32
405.00 288.00 0.00 6.21 -0.33
406.00 288.00 0.00 6.18 -0.34
407.00 288.00 0.00 6.15 -0.35
408.00 288.00 0.00 6.12 -0.37
409.00 288.00 0.00 6.08 -0.38
410.00 288.00 0.00 6.06 -0.39
411.00 288.00 0.00 6.03 -0.40
412.00 288.00 0.00 6.00 -0.42
413.00 288.00 0.00 5.97 -0.43
414.00 288.00 0.00 5.94 -0.44
415.00 288.00 0.00 5.91 -0.45
416.00 288.00 0.00 5.88 -0.46
417.00 288.00 0.00 5.85 -0.48
418.00 288.00 0.00 5.82 -0.49
419.00 288.00 0.00 5.79 -0.50
420.00 288.00 0.00 5.76 -0.51
421.00 288.00 0.00 5.73 -0.52
422.00 288.00 0.00 5.70 -0.54
423.00 288.00 0.00 5.67 -0.55
424.00 288.00 0.00 5.64 -0.56
425.00 288.00 0.00 5.61 -0.57
426.00 288.00 0.00 5.58 -0.59
427.00 288.00 0.00 5.55 -0.60
428.00 288.00 0.00 5.52 -0.61
429.00 288.00 0.00 5.49 -0.62
430.00 288.00 0.00 5.46 -0.63
431.00 288.00 0.00 5.43 -0.65
432.00 288.00 0.00 5.40 -0.66
433.00 288.00 0.00 5.37 -0.67
434.00 288.00 0.00 5.34 -0.68
435.00 288.00 0.00 5.31 -0.70
436.00 288.00 0.00 5.28 -0.71
437.00 288.00 0.00 5.25 -0.72
438.00 288.00 0.00 5.22 -0.73
439.00 288.00 0.00 5.19 -0.74
440.00 288.00 0.00 5.16 -0.76
441.00 288.00 0.00 5.13 -0.77
442.00 288.00 0.00 5.10 -0.78
443.00 288.00 0.00 5.07 -0.79
444.00 288.00 0.00 5.04 -0.80
445.00 288.00 0.00 5.01 -0.82
446.00 288.00 0.00 4.98 -0.83
447.00 288.00 0.00 4.95 -0.84
448.00 288.00 0.00 4.92 -0.85
449.00 288.00 0.00 4.89 -0.87
450.00 288.00 0.00 4.86 -0.88
451.00 288.00 0.00 4.83 -0.89
452.00 288.00 0.00 4.80 -0.90
453.00 288.00 0.00 4.77 -0.91
454.00 288.00 0.00 4.74 -0.93
455.00 288.00 0.00 4.71 -0.94
456.00 288.00 0.00 4.68 -0.95
457.00 288.00 0.00 4.65 -0.96
458.00 288.00 0.00 4.62 -0.97
459.00 288.00 0.00 4.58 -0.99
460.00 288.00 0.00 4.55 -1.00
461.00 288.00 0.00 4.53 -1.01
462.00 288.00 0.00 4.50 -1.02
463.00 288.00 0.00 4.46 -1.03
464.00 288.00 0.00 4.44 -1.05
465.00 288.00 0.00 4.41 -1.06
466.00 288.00 0.00 4.38 -1.07
467.00 288.00 0.00 4.35 -1.08
468.00 288.00 0.00 4.32 -1.10
469.00 288.00 0.00 4.29 -1.11
470.00 288.00 0.00 4.26 -1.12
471.00 288.00 0.00 4.23 -1.13
472.00 288.00 0.00 4.20 -1.14
473.00 288.00 0.00 4.17 -1.16
474.00 288.00 0.00 4.14 -1.17
475.00 288.00 0.00 4.11 -1.18
476.00 288.00 0.00 4.07 -1.19
477.00 288.00 0.00 4.05 -1.20
478.00 288.00 0.00 4.02 -1.22
479.00 288.00 0.00 3.99 -1.23
480.00 288.00 0.00 3.96 -1.24
481.00 288.00 0.00 3.92 -1.25
482.00 288.00 0.00 3.90 -1.26
483.00 288.00 0.00 3.87 -1.28
484.00 288.00 0.00 3.84 -1.29
485.00 288.00 0.00 3.81 -1.30
486.00 288.00 0.00 3.78 -1.31
487.00 288.00 0.00 3.75 -1.32
488.00 288.00 0.00 3.71 -1.34
489.00 288.00 0.00 3.69 -1.35
490.00 288.00 0.00 3.66 -1.36
491.00 288.00 0.00 3.62 -1.37
492.00 288.00 0.00 3.60 -1.38
493.00 288.00 0.00 3.57 -1.40
494.00 288.00 0.00 3.54 -1.41
495.00 288.00 0.00 3.51 -1.42
496.00 288.00 0.00 3.48 -1.43
497.00 288.00 0.00 3.45 -1.44
498.00 288.00 0.00 3.42 -1.46
499.00 288.00 0.00 3.39 -1.47
500.00 288.00 0.00 3.36 -1.48
501.00 288.00 0.00 3.33 -1.49
502.00 288.00 0.00 3.30 -1.50
503.00 288.00 0.00 3.27 -1.52
504.00 288.00 0.00 3.24 -1.53
505.00 288.00 0.00 3.21 -1.54
506.00 288.00 0.00 3.17 -1.55
507.00 288.00 0.00 3.15 -1.56
508.00 288.00 0.00 3.12 -1.57
509.00 288.00 0.00 3.09 -1.59
510.00 288.00 0.00 3.06 -1.60
511.00 288.00 0.00 3.03 -1.61
512.00 288.00 0.00 3.00 -1.62
513.00 288.00 0.00 2.97 -1.63
514.00 288.00 0.00 2.94 -1.65
515.00 288.00 0.00 2.91 -1.66
516.00 288.00 0.00 2.88 -1.67
517.00 288.00 0.00 2.85 -1.68
518.00 288.00 0.00 2.82 -1.69
519.00 288.00 0.00 2.79 -1.71
520.00 288.00 0.00 2.76 -1.72
521.00 288.00 0.00 2.72 -1.73
522.00 288.00 0.00 2.70 -1.74
523.00 288.00 0.00 2.67 -1.75
524.00 288.00 0.00 2.64 -1.76
525.00 288.00 0.00 2.60 -1.78
526.00 288.00 0.00 2.58 -1.79
527.00 288.00 0.00 2.54 -1.80
528.00 288.00 0.00 2.52 -1.81
529.00 288.00 0.00 2.49 -1.82
530.00 288.00 0.00 2.46 -1.84
531.00 288.00 0.00 2.43 -1.85
532.00 288.00 0.00 2.40 -1.86
533.00 288.00 0.00 2.37 -1.87
534.00 288.00 0.00 2.34 -1.88
535.00 288.00 0.00 2.31 -1.89
536.00 288.00 0.00 2.27 -1.91
537.00 288.00 0.00 2.25 -1.92
538.00 288.00 0.00 2.22 -1.93
539.00 288.00 0.00 2.19 -1.94
540.00 288.00 0.00 2.16 -1.95
541.00 288.00 0.00 2.13 -1.96
542.00 288.00 0.00 2.10 -1.98
543.00 288.00 0.00 2.07 -1.99
544.00 288.00 0.00 2.04 -2.00
545.00 288.00 0.00 2.01 -2.01
546.00 288.00 0.00 1.98 -2.02
547.00 288.00 0.00 1.95 -2.03
548.00 288.00 0.00 1.93 -2.04
549.00 288.00 0.00 1.90 -2.05
550.00 288.00 0.00 1.87 -2.06
551.00 288.00 0.00 1.84 -2.07
552.00 288.00 0.00 1.81 -2.09
553.00 288.00 0.00 1.79 -2.10
554.00 288.00 0.00 1.76 -2.11
555.00 288.00 0.00 1.73 -2.12
556.00 288.00 0.00 1.71 -2.13
557.00 288.00 0.00 1.68 -2.14
558.00 288.00 0.00 1.65 -2.15
559.00 288.00 0.00 1.63 -2.16
560.00 288.00 0.00 1.60 -2.17
561.00 288.00 0.00 1.57 -2.18
562.00 288.00 0.00 1.55 -2.19
563.00 288.00 0.00 1.52 -2.20
564.00 288.00 0.00 1.50 -2.21
565.00 288.00 0.00 1.47 -2.22
566.00 288.00 0.00 1.44 -2.23
567.00 288.00 0.00 1.42 -2.24
568.00 288.00 0.00 1.39 -2.25
569.00 288.00 0.00 1.37 -2.26
570.00 288.00 0.00 1.35 -2.27
571.00 288.00 0.00 1.32 -2.28
572.00 288.00 0.00 1.30 -2.28
573.00 288.00 0.00 1.27 -2.29
574.00 288.00 0.00 1.25 -2.30
575.00 288.00 0.00 1.23 -2.31
576.00 288.00 0.00 1.20 -2.32
577.00 288.00 0.00 1.18 -2.33
578.00 288.00 0.00 1.15 -2.34
579.00 288.00 0.00 1.13 -2.35
580.00 288.00 0.00 1.11 -2.36
581.00 288.00 0.00 1.09 -2.37
582.00 288.00 0.00 1.06 -2.37
583.00 288.00 0.00 1.04 -2.38
584.00 288.00 0.00 1.02 -2.39
585.00 288.00 0.00 1.00 -2.40
586.00 288.00 0.00 0.97 -2.41
587.00 288.00 0.00 0.95 -2.42
588.00 288.00 0.00 0.93 -2.42
589.00 288.00 0.00 0.91 -2.43
590.00 288.00 0.00 0.89 -2.44
591.00 288.00 0.00 0.87 -2.45
592.00 288.00 0.00 0.85 -2.46
593.00 288.00 0.00 0.83 -2.46
594.00 288.00 0.00 0.81 -2.47
595.00 288.00 0.00 0.78 -2.48
596.00 288.00 0.00 0.76 -2.49
597.00 288.00 0.00 0.74 -2.50
598.00 288.00 0.00 0.72 -2.50
599.00 288.00 0.00 0.70 -2.51
600.00 288.00 0.00 0.69 -2.52
601.00 288.00 0.00 0.67 -2.53
602.00 288.00 0.00 0.65 -2.53
603.00 288.00 0.00 0.63 -2.54
604.00 288.00 0.00 0.61 -2.55
605.00 288.00 0.00 0.59 -2.55
606.00 288.00 0.00 0.57 -2.56
607.00 288.00 0.00 0.55 -2.57
608.00 288.00 0.00 0.53 -2.57
609.00 288.00 0.00 0.52 -2.58
610.00 288.00 0.00 0.50 -2.59
611.00 288.00 0.00 0.48 -2.60
612.00 288.00 0.00 0.46 -2.60
613.00 288.00 0.00 0.45 -2.61
614.00 288.00 0.00 0.43 -2.61
615.00 288.00 0.00 0.41 -2.62
616.00 288.00 0.00 0.39 -2.63
617.00 288.00 0.00 0.38 -2.63
618.00 288.00 0.00 0.36 -2.64
619.00 288.00 0.00 0.34 -2.65
620.00 288.00 0.00 0.33 -2.65
621.00 288.00 0.00 0.31 -2.66
622.00 288.00 0.00 0.30 -2.66
623.00 288.00 0.00 0.28 -2.67
624.00 288.00 0.00 0.27 -2.68
625.00 288.00 0.00 0.25 -2.68
626.00 288.00 0.00 0.23 -2.69
627.00 288.00 0.00 0.22 -2.69
628.00 288.00 0.00 0.20 -2.70
629.00 288.00 0.00 0.19 -2.70
630.00 288.00 0.00 0.18 -2.71
631.00 288.00 0.00 0.16 -2.71
632.00 288.00 0.00 0.15 -2.72
633.00 288.00 0.00 0.13 -2.73
634.00 288.00 0.00 0.12 -2.73
635.00 288.00 0.00 0.10 -2.74
636.00 288.00 0.00 0.09 -2.74
637.00 288.00 0.00 0.08 -2.75
638.00 288.00 0.00 0.06 -2.75
639.00 288.00 0.00 0.05 -2.76
640.00 288.00 0.00 0.04 -2.76
641.00 288.00 0.00 0.03 -2.77
642.00 288.00 0.00 0.01 -2.77
643.00 288.00 0.00 0.00 -2.77
644.00 288.00 0.00 -0.01 -2.78
645.00 288.00 0.00 -0.02 -2.78
646.00 288.00 0.00 -0.04 -2.79
647.00 288.00 0.00 -0.05 -2.79
648.00 288.00 0.00 -0.06 -2.80
649.00 288.00 0.00 -0.07 -2.80
650.00 288.00 0.00 -0.08 -2.81
651.00 288.00 0.00 -0.09 -2.81
652.00 288.00 0.00 -0.10 -2.81
653.00 288.00 0.00 -0.11 -2.82
654.00 288.00 0.00 -0.12 -2.82
655.00 288.00 0.00 -0.14 -2.82
656.00 288.00 0.00 -0.15 -2.83
657.00 288.00 0.00 -0.16 -2.83
658.00 288.00 0.00 -0.17 -2.84
659.00 288.00 0.00 -0.18 -2.84
660.00 288.00 0.00 -0.18 -2.84
661.00 288.00 0.00 -0.19 -2.85
662.00 288.00 0.00 -0.20 -2.85
663.00 288.00 0.00 -0.21 -2.85
664.00 288.00 0.00 -0.22 -2.86
665.00 288.00 0.00 -0.23 -2.86
666.00 288.00 0.00 -0.24 -2.86
667.00 288.00 0.00 -0.25 -2.87
668.00 288.00 0.00 -0.26 -2.87
669.00 288.00 0.00 -0.26 -2.87
670.00 288.00 0.00 -0.27 -2.88
671.00 288.00 0.00 -0.28 -2.88
672.00 288.00 0.00 -0.29 -2.88
673.00 288.00 0.00 -0.29 -2.88
674.00 288.00 0.00 -0.30 -2.89
675.00 288.00 0.00 -0.31 -2.89
676.00 288.00 0.00 -0.32 -2.89
677.00 288.00 0.00 -0.32 -2.89
678.00 288.00 0.00 -0.33 -2.90
679.00 288.00 0.00 -0.33 -2.90
680.00 288.00 0.00 -0.34 -2.90
681.00 288.00 0.00 -0.35 -2.90
682.00 288.00 0.00 -0.35 -2.91
683.00 288.00 0.00 -0.36 -2.91
684.00 288.00 0.00 -0.36 -2.91
685.00 288.00 0.00 -0.37 -2.91
686.00 288.00 0.00 -0.38 -2.91
687.00 288.00 0.00 -0.38 -2.91
688.00 288.00 0.00 -0.39 -2.92
689.00 288.00 0.00 -0.39 -2.92
690.00 288.00 0.00 -0.39 -2.92
691.00 288.00 0.00 -0.40 -2.92
692.00 288.00 0.00 -0.40 -2.92
693.00 288.00 0.00 -0.41 -2.92
694.00 288.00 0.00 -0.41 -2.93
695.00 288.00 0.00 -0.41 -2.93
696.00 288.00 0.00 -0.42 -2.93
697.00 288.00 0.00 -0.42 -2.93
698.00 288.00 0.00 -0.42 -2.93
699.00 288.00 0.00 -0.43 -2.93
700.00 288.00 0.00 -0.43 -2.93
701.00 288.00 0.00 -0.43 -2.93
702.00 288.00 0.00 -0.44 -2.94
703.00 288.00 0.00 -0.44 -2.94
704.00 288.00 0.00 -0.44 -2.94
705.00 288.00 0.00 -0.44 -2.94
706.00 288.00 0.00 -0.44 -2.94
707.00 288.00 0.00 -0.45 -2.94
708.00 288.00 0.00 -0.45 -2.94
709.00 288.00 0.00 -0.45 -2.94
710.00 288.00 0.00 -0.45 -2.94
711.00 288.00 0.00 -0.45 -2.94
712.00 288.00 0.00 -0.45 -2.94
713.00 288.00 0.00 -0.45 -2.94
714.00 288.00 0.00 -0.45 -2.94
715.00 288.00 0.00 -0.45 -2.94
716.00 288.00 0.00 -0.45 -2.94
717.00 288.00 0.00 -0.45 -2.94
718.00 288.00 0.00 -0.45 -2.94
719.00 288.00 0.00 -0.45 -2.94
720.00 288.00 0.00 -0.45 -2.94
721.00 288.00 0.00 -0.45 -2.94
722.00 288.00 0.00 -0.45 -2.94
723.00 288.00 0.00 -0.45 -2.94
724.00 288.00 0.00 -0.45 -2.94
725.00 288.00 0.00 -0.45 -2.94
726.00 288.00 0.00 -0.45 -2.94
727.00 288.00 0.00 -0.45 -2.94
728.00 288.00 0.00 -0.45 -2.94
729.00 288.00 0.00 -0.45 -2.94
730.00 288.00 0.00 -0.45 -2.94
731.00 288.00 0.00 -0.45 -2.94
732.00 288.00 0.00 -0.45 -2.94
733.00 288.00 0.00 -0.45 -2.94
734.00 288.00 0.00 -0.45 -2.94
735.00 288.00 0.00 -0.45 -2.94
736.00 288.00 0.00 -0.45 -2.94
737.00 288.00 0.00 -0.45 -2.94
738.00 288.00 0.00 -0.45 -2.94
739.00 288.00 0.00 -0.45 -2.94
740.00 288.00 0.00 -0.45 -2.94
741.00 288.00 0.00 -0.45 -2.94
742.00 288.00 0.00 -0.45 -2.94
743.00 288.00 0.00 -0.45 -2.94
744.00 288.00 0.00 -0.45 -2.94
745.00 288.00 0.00 -0.45 -2.94
746.00 288.00 0.00 -0.45 -2.94
747.00 288.00 0.00 -0.45 -2.94
748.00 288.00 0.00 -0.45 -2.94
749.00 288.00 0.00 -0.45 -2.94
750.00 288.00 0.00 -0.45 -2.94
751.00 288.00 0.00 -0.45 -2.94
752.00 288.00 0.00 -0.45 -2.94
753.00 288.00 0.00 -0.45 -2.94
754.00 288.00 0.00 -0.45 -2.94
755.00 288.00 0.00 -0.45 -2.94
756.00 288.00 0.00 -0.45 -2.94
757.00 288.00 0.00 -0.45 -2.94
758.00 288.00 0.00 -0.45 -2.94
759.00 288.00 0.00 -0.45 -2.94
760.00 288.00 0.00 -0.45 -2.94
761.00 288.00 0.00 -0.45 -2.94
762.00 288.00 0.00 -0.45 -2.94
763.00 288.00 0.00 -0.45 -2.94
764.00 288.00 0.00 -0.45 -2.94
765.00 288.00 0.00 -0.45 -2.94
766.00 288.00 0.00 -0.45 -2.94
767.00 288.00 0.00 -0.45 -2.94
768.00 288.00 0.00 -0.45 -2.94
769.00 288.00 0.00 -0.45 -2.94
770.00 288.00 0.00 -0.45 -2.94
771.00 288.00 0.00 -0.45 -2.94
772.00 288.00 0.00 -0.45 -2.94
773.00 288.00 0.00 -0.45 -2.94
774.00 288.00 0.00 -0.45 -2.94
775.00 288.00 0.00 -0.45 -2.94
776.00 288.00 0.00 -0.45 -2.94
777.00 288.00 0.00 -0.45 -2.94
778.00 288.00 0.00 -0.45 -2.94
779.00 288.00 0.00 -0.45 -2.94
780.00 288.00 0.00 -0.45 -2.94
781.00 288.00 0.00 -0.45 -2.94
782.00 288.00 0.00 -0.45 -2.94
783.00 288.00 0.00 -0.45 -2.94
784.00 288.00 0.00 -0.45 -2.94
785.00 288.00 0.00 -0.45 -2.94
786.00 288.00 0.00 -0.45 -2.94
787.00 288.00 0.00 -0.45 -2.94
788.00 288.00 0.00 -0.45 -2.94
789.00 288.00 0.00 -0.45 -2.94
790.00 288.00 0.00 -0.45 -2.94
791.00 288.00 0.00 -0.45 -2.94
792.00 288.00 0.00 -0.45 -2.94
793.00 288.00 0.00 -0.45 -2.94
794.00 288.00 0.00 -0.45 -2.94
795.00 288.00 0.00 -0.45 -2.94
796.00 288.00 0.00 -0.45 -2.94
797.00 288.00 0.00 -0.45 -2.94
798.00 288.00 0.00 -0.45 -2.94
799.00 288.00 0.00 -0.45 -2.94
800.00 288.00 0.00 -0.45 -2.94
801.00 288.00 0.00 -0.45 -2.94
802.00 288.00 0.00 -0.45 -2.94
803.00 288.00 0.00 -0.45 -2.94
804.00 288.00 0.00 -0.45 -2.94
805.00 288.00 0.00 -0.45 -2.94
806.00 288.00 0.00 -0.45 -2.94
807.00 288.00 0.00 -0.45 -2.94
808.00 288.00 0.00 -0.45 -2.94
809.00 288.00 0.00 -0.45 -2.94
810.00 288.00 0.00 -0.45 -2.94
811.00 288.00 0.00 -0.45 -2.94
812.00 288.00 0.00 -0.45 -2.94
813.00 288.00 0.00 -0.45 -2.94
814.00 288.00 0.00 -0.45 -2.94
815.00 288.00 0.00 -0.45 -2.94
816.00 288.00 0.00 -0.45 -2.94
817.00 288.00 0.00 -0.45 -2.94
818.00 288.00 0.00 -0.45 -2.94
819.00 288.00 0.00 -0.45 -2.94
820.00 288.00 0.00 -0.45 -2.94
821.00 288.00 0.00 -0.45 -2.94
822.00 288.00 0.00 -0.45 -2.94
823.00 288.00 0.00 -0.45 -2.94
824.00 288.00 0.00 -0.45 -2.94
825.00 288.00 0.00 -0.45 -2.94
826.00 288.00 0.00 -0.45 -2.94
827.00 288.00 0.00 -0.45 -2.94
828.00 288.00 0.00 -0.45 -2.94
829.00 288.00 0.00 -0.45 -2.94
830.00 288.00 0.00 -0.45 -2.94
831.00 288.00 0.00 -0.45 -2.94
