1000.00 288.00 00.00
0.00 288.00 0.00 2.77 2.53
1.00 288.00 0.00 2.77 2.53
2.00 288.00 0.00 2.77 2.53
3.00 288.00 0.00 2.77 2.53
4.00 288.00 0.00 2.77 2.53
5.00 288.00 0.00 2.77 2.53
6.00 288.00 0.00 2.77 2.53
7.00 288.00 0.00 2.77 2.53
8.00 288.00 0.00 2.77 2.53
9.00 288.00 0.00 2.77 2.53
10.00 288.00 0.00 2.77 2.53
11.00 288.00 0.00 2.77 2.53
12.00 288.00 0.00 2.77 2.53
13.00 288.00 0.00 2.77 2.53
14.00 288.00 0.00 2.77 2.53
15.00 288.00 0.00 2.77 2.53
16.00 288.00 0.00 2.77 2.53
17.00 288.00 0.00 2.77 2.53
18.00 288.00 0.00 2.77 2.53
19.00 288.00 0.00 2.77 2.53
20.00 288.00 0.00 2.77 2.53
21.00 288.00 0.00 2.77 2.53
22.00 288.00 0.00 2.77 2.53
23.00 288.00 0.00 2.77 2.53
24.00 288.00 0.00 2.77 2.53
25.00 288.00 0.00 2.77 2.53
26.00 288.00 0.00 2.77 2.53
27.00 288.00 0.00 2.77 2.53
28.00 288.00 0.00 2.77 2.53
29.00 288.00 0.00 2.77 2.53
30.00 288.00 0.00 2.77 2.53
31.00 288.00 0.00 2.77 2.53
32.00 288.00 0.00 2.77 2.53
33.00 288.00 0.00 2.77 2.53
34.00 288.00 0.00 2.77 2.53
35.00 288.00 0.00 2.77 2.53
36.00 288.00 0.00 2.77 2.53
37.00 288.00 0.00 2.77 2.53
38.00 288.00 0.00 2.77 2.53
39.00 288.00 0.00 2.77 2.53
40.00 288.00 0.00 2.77 2.53
41.00 288.00 0.00 2.77 2.53
42.00 288.00 0.00 2.77 2.53
43.00 288.00 0.00 2.77 2.53
44.00 288.00 0.00 2.77 2.53
45.00 288.00 0.00 2.77 2.53
46.00 288.00 0.00 2.77 2.53
47.00 288.00 0.00 2.77 2.53
48.00 288.00 0.00 2.77 2.53
49.00 288.00 0.00 2.77 2.53
50.00 288.00 0.00 2.77 2.53
51.00 288.00 0.00 2.77 2.53
52.00 288.00 0.00 2.77 2.53
53.00 288.00 0.00 2.77 2.53
54.00 288.00 0.00 2.77 2.53
55.00 288.00 0.00 2.77 2.53
56.00 288.00 0.00 2.77 2.53
57.00 288.00 0.00 2.77 2.53
58.00 288.00 0.00 2.77 2.53
59.00 288.00 0.00 2.77 2.53
60.00 288.00 0.00 2.77 2.53
61.00 288.00 0.00 2.77 2.53
62.00 288.00 0.00 2.77 2.53
63.00 288.00 0.00 2.77 2.53
64.00 288.00 0.00 2.77 2.53
65.00 288.00 0.00 2.77 2.53
66.00 288.00 0.00 2.77 2.53
67.00 288.00 0.00 2.77 2.53
68.00 288.00 0.00 2.77 2.53
69.00 288.00 0.00 2.77 2.53
70.00 288.00 0.00 2.77 2.53
71.00 288.00 0.00 2.77 2.53
72.00 288.00 0.00 2.77 2.53
73.00 288.00 0.00 2.77 2.53
74.00 288.00 0.00 2.77 2.53
75.00 288.00 0.00 2.77 2.53
76.00 288.00 0.00 2.77 2.53
77.00 288.00 0.00 2.77 2.53
78.00 288.00 0.00 2.77 2.53
79.00 288.00 0.00 2.77 2.53
80.00 288.00 0.00 2.77 2.53
81.00 288.00 0.00 2.77 2.53
82.00 288.00 0.00 2.77 2.53
83.00 288.00 0.00 2.77 2.53
84.00 288.00 0.00 2.77 2.53
85.00 288.00 0.00 2.77 2.53
86.00 288.00 0.00 2.77 2.53
87.00 288.00 0.00 2.77 2.52
88.00 288.00 0.00 2.77 2.52
89.00 288.00 0.00 2.77 2.52
90.00 288.00 0.00 2.77 2.52
91.00 288.00 0.00 2.78 2.52
92.00 288.00 0.00 2.78 2.52
93.00 288.00 0.00 2.78 2.52
94.00 288.00 0.00 2.78 2.52
95.00 288.00 0.00 2.78 2.52
96.00 288.00 0.00 2.79 2.52
97.00 288.00 0.00 2.79 2.51
98.00 288.00 0.00 2.79 2.51
99.00 288.00 0.00 2.79 2.51
100.00 288.00 0.00 2.79 2.51
101.00 288.00 0.00 2.80 2.51
102.00 288.00 0.00 2.80 2.51
103.00 288.00 0.00 2.80 2.51
104.00 288.00 0.00 2.81 2.50
105.00 288.00 0.00 2.81 2.50
106.00 288.00 0.00 2.81 2.50
107.00 288.00 0.00 2.82 2.50
108.00 288.00 0.00 2.82 2.50
109.00 288.00 0.00 2.82 2.49
110.00 288.00 0.00 2.83 2.49
111.00 288.00 0.00 2.83 2.49
112.00 288.00 0.00 2.83 2.49
113.00 288.00 0.00 2.84 2.49
114.00 288.00 0.00 2.84 2.48
115.00 288.00 0.00 2.85 2.48
116.00 288.00 0.00 2.85 2.48
117.00 288.00 0.00 2.85 2.48
118.00 288.00 0.00 2.86 2.47
119.00 288.00 0.00 2.86 2.47
120.00 288.00 0.00 2.87 2.47
121.00 288.00 0.00 2.87 2.47
122.00 288.00 0.00 2.88 2.46
123.00 288.00 0.00 2.88 2.46
124.00 288.00 0.00 2.89 2.46
125.00 288.00 0.00 2.89 2.45
126.00 288.00 0.00 2.90 2.45
127.00 288.00 0.00 2.91 2.45
128.00 288.00 0.00 2.91 2.44
129.00 288.00 0.00 2.92 2.44
130.00 288.00 0.00 2.92 2.44
131.00 288.00 0.00 2.93 2.43
132.00 288.00 0.00 2.93 2.43
133.00 288.00 0.00 2.94 2.43
134.00 288.00 0.00 2.95 2.42
135.00 288.00 0.00 2.95 2.42
136.00 288.00 0.00 2.96 2.42
137.00 288.00 0.00 2.97 2.41
138.00 288.00 0.00 2.97 2.41
139.00 288.00 0.00 2.98 2.40
140.00 288.00 0.00 2.99 2.40
141.00 288.00 0.00 2.99 2.40
142.00 288.00 0.00 3.00 2.39
143.00 288.00 0.00 3.01 2.39
144.00 288.00 0.00 3.02 2.38
145.00 288.00 0.00 3.02 2.38
146.00 288.00 0.00 3.03 2.37
147.00 288.00 0.00 3.04 2.37
148.00 288.00 0.00 3.05 2.37
149.00 288.00 0.00 3.05 2.36
150.00 288.00 0.00 3.06 2.36
151.00 288.00 0.00 3.07 2.35
152.00 288.00 0.00 3.08 2.35
153.00 288.00 0.00 3.09 2.34
154.00 288.00 0.00 3.10 2.34
155.00 288.00 0.00 3.10 2.33
156.00 288.00 0.00 3.11 2.33
157.00 288.00 0.00 3.12 2.32
158.00 288.00 0.00 3.13 2.32
159.00 288.00 0.00 3.14 2.31
160.00 288.00 0.00 3.15 2.31
161.00 288.00 0.00 3.16 2.30
162.00 288.00 0.00 3.17 2.29
163.00 288.00 0.00 3.18 2.29
164.00 288.00 0.00 3.19 2.28
165.00 288.00 0.00 3.20 2.28
166.00 288.00 0.00 3.21 2.27
167.00 288.00 0.00 3.22 2.27
168.00 288.00 0.00 3.23 2.26
169.00 288.00 0.00 3.24 2.25
170.00 288.00 0.00 3.25 2.25
171.00 288.00 0.00 3.26 2.24
172.00 288.00 0.00 3.27 2.24
173.00 288.00 0.00 3.28 2.23
174.00 288.00 0.00 3.29 2.22
175.00 288.00 0.00 3.30 2.22
176.00 288.00 0.00 3.31 2.21
177.00 288.00 0.00 3.32 2.20
178.00 288.00 0.00 3.33 2.20
179.00 288.00 0.00 3.35 2.19
180.00 288.00 0.00 3.36 2.18
181.00 288.00 0.00 3.37 2.18
182.00 288.00 0.00 3.38 2.17
183.00 288.00 0.00 3.39 2.16
184.00 288.00 0.00 3.40 2.16
185.00 288.00 0.00 3.42 2.15
186.00 288.00 0.00 3.43 2.14
187.00 288.00 0.00 3.44 2.14
188.00 288.00 0.00 3.45 2.13
189.00 288.00 0.00 3.46 2.12
190.00 288.00 0.00 3.48 2.11
191.00 288.00 0.00 3.49 2.11
192.00 288.00 0.00 3.50 2.10
193.00 288.00 0.00 3.52 2.09
194.00 288.00 0.00 3.53 2.08
195.00 288.00 0.00 3.54 2.08
196.00 288.00 0.00 3.55 2.07
197.00 288.00 0.00 3.57 2.06
198.00 288.00 0.00 3.58 2.05
199.00 288.00 0.00 3.59 2.05
200.00 288.00 0.00 3.61 2.04
201.00 288.00 0.00 3.62 2.03
202.00 288.00 0.00 3.64 2.02
203.00 288.00 0.00 3.65 2.01
204.00 288.00 0.00 3.66 2.00
205.00 288.00 0.00 3.68 2.00
206.00 288.00 0.00 3.69 1.99
207.00 288.00 0.00 3.71 1.98
208.00 288.00 0.00 3.72 1.97
209.00 288.00 0.00 3.74 1.96
210.00 288.00 0.00 3.75 1.95
211.00 288.00 0.00 3.77 1.94
212.00 288.00 0.00 3.78 1.94
213.00 288.00 0.00 3.80 1.93
214.00 288.00 0.00 3.81 1.92
215.00 288.00 0.00 3.83 1.91
216.00 288.00 0.00 3.84 1.90
217.00 288.00 0.00 3.86 1.89
218.00 288.00 0.00 3.87 1.88
219.00 288.00 0.00 3.89 1.87
220.00 288.00 0.00 3.90 1.86
221.00 288.00 0.00 3.92 1.85
222.00 288.00 0.00 3.94 1.84
223.00 288.00 0.00 3.95 1.83
224.00 288.00 0.00 3.97 1.82
225.00 288.00 0.00 3.99 1.82
226.00 288.00 0.00 4.00 1.81
227.00 288.00 0.00 4.02 1.80
228.00 288.00 0.00 4.04 1.79
229.00 288.00 0.00 4.05 1.78
230.00 288.00 0.00 4.07 1.77
231.00 288.00 0.00 4.09 1.76
232.00 288.00 0.00 4.10 1.75
233.00 288.00 0.00 4.12 1.73
234.00 288.00 0.00 4.14 1.72
235.00 288.00 0.00 4.16 1.71
236.00 288.00 0.00 4.17 1.70
237.00 288.00 0.00 4.19 1.69
238.00 288.00 0.00 4.21 1.68
239.00 288.00 0.00 4.23 1.67
240.00 288.00 0.00 4.25 1.66
241.00 288.00 0.00 4.26 1.65
242.00 288.00 0.00 4.28 1.64
243.00 288.00 0.00 4.30 1.63
244.00 288.00 0.00 4.32 1.62
245.00 288.00 0.00 4.34 1.61
246.00 288.00 0.00 4.36 1.59
247.00 288.00 0.00 4.38 1.58
248.00 288.00 0.00 4.39 1.57
249.00 288.00 0.00 4.41 1.56
250.00 288.00 0.00 4.43 1.55
251.00 288.00 0.00 4.45 1.54
252.00 288.00 0.00 4.47 1.53
253.00 288.00 0.00 4.49 1.51
254.00 288.00 0.00 4.51 1.50
255.00 288.00 0.00 4.53 1.49
256.00 288.00 0.00 4.55 1.48
257.00 288.00 0.00 4.57 1.47
258.00 288.00 0.00 4.59 1.46
259.00 288.00 0.00 4.61 1.44
260.00 288.00 0.00 4.63 1.43
261.00 288.00 0.00 4.65 1.42
262.00 288.00 0.00 4.67 1.41
263.00 288.00 0.00 4.69 1.40
264.00 288.00 0.00 4.71 1.38
265.00 288.00 0.00 4.73 1.37
266.00 288.00 0.00 4.75 1.36
267.00 288.00 0.00 4.77 1.35
268.00 288.00 0.00 4.79 1.34
269.00 288.00 0.00 4.81 1.32
270.00 288.00 0.00 4.83 1.31
271.00 288.00 0.00 4.85 1.30
272.00 288.00 0.00 4.87 1.29
273.00 288.00 0.00 4.89 1.28
274.00 288.00 0.00 4.91 1.26
275.00 288.00 0.00 4.93 1.25
276.00 288.00 0.00 4.95 1.24
277.00 288.00 0.00 4.97 1.23
278.00 288.00 0.00 4.99 1.22
279.00 288.00 0.00 5.01 1.20
280.00 288.00 0.00 5.03 1.19
281.00 288.00 0.00 5.05 1.18
282.00 288.00 0.00 5.07 1.17
283.00 288.00 0.00 5.09 1.16
284.00 288.00 0.00 5.11 1.14
285.00 288.00 0.00 5.13 1.13
286.00 288.00 0.00 5.15 1.12
287.00 288.00 0.00 5.17 1.11
288.00 288.00 0.00 5.19 1.10
289.00 288.00 0.00 5.21 1.08
290.00 288.00 0.00 5.23 1.07
291.00 288.00 0.00 5.25 1.06
292.00 288.00 0.00 5.27 1.05
293.00 288.00 0.00 5.29 1.03
294.00 288.00 0.00 5.31 1.02
295.00 288.00 0.00 5.33 1.01
296.00 288.00 0.00 5.35 1.00
297.00 288.00 0.00 5.37 0.99
298.00 288.00 0.00 5.39 0.97
299.00 288.00 0.00 5.41 0.96
300.00 288.00 0.00 5.43 0.95
301.00 288.00 0.00 5.45 0.94
302.00 288.00 0.00 5.47 0.93
303.00 288.00 0.00 5.49 0.91
304.00 288.00 0.00 5.51 0.90
305.00 288.00 0.00 5.53 0.89
306.00 288.00 0.00 5.55 0.88
307.00 288.00 0.00 5.57 0.87
308.00 288.00 0.00 5.59 0.85
309.00 288.00 0.00 5.61 0.84
310.00 288.00 0.00 5.63 0.83
311.00 288.00 0.00 5.65 0.82
312.00 288.00 0.00 5.67 0.80
313.00 288.00 0.00 5.69 0.79
314.00 288.00 0.00 5.71 0.78
315.00 288.00 0.00 5.73 0.77
316.00 288.00 0.00 5.75 0.76
317.00 288.00 0.00 5.77 0.74
318.00 288.00 0.00 5.79 0.73
319.00 288.00 0.00 5.81 0.72
320.00 288.00 0.00 5.83 0.71
321.00 288.00 0.00 5.85 0.70
322.00 288.00 0.00 5.87 0.68
323.00 288.00 0.00 5.89 0.67
324.00 288.00 0.00 5.91 0.66
325.00 288.00 0.00 5.93 0.65
326.00 288.00 0.00 5.95 0.63
327.00 288.00 0.00 5.97 0.62
328.00 288.00 0.00 5.99 0.61
329.00 288.00 0.00 6.01 0.60
330.00 288.00 0.00 6.03 0.59
331.00 288.00 0.00 6.05 0.57
332.00 288.00 0.00 6.07 0.56
333.00 288.00 0.00 6.09 0.55
334.00 288.00 0.00 6.11 0.54
335.00 288.00 0.00 6.13 0.52
336.00 288.00 0.00 6.15 0.51
337.00 288.00 0.00 6.17 0.50
338.00 288.00 0.00 6.19 0.49
339.00 288.00 0.00 6.21 0.48
340.00 288.00 0.00 6.23 0.46
341.00 288.00 0.00 6.25 0.45
342.00 288.00 0.00 6.27 0.44
343.00 288.00 0.00 6.29 0.43
344.00 288.00 0.00 6.31 0.42
345.00 288.00 0.00 6.33 0.40
346.00 288.00 0.00 6.35 0.39
347.00 288.00 0.00 6.37 0.38
348.00 288.00 0.00 6.39 0.37
349.00 288.00 0.00 6.41 0.35
350.00 288.00 0.00 6.43 0.34
351.00 288.00 0.00 6.45 0.33
352.00 288.00 0.00 6.47 0.32
353.00 288.00 0.00 6.49 0.31
354.00 288.00 0.00 6.51 0.29
355.00 288.00 0.00 6.53 0.28
356.00 288.00 0.00 6.55 0.27
357.00 288.00 0.00 6.57 0.26
358.00 288.00 0.00 6.59 0.24
359.00 288.00 0.00 6.61 0.23
360.00 288.00 0.00 6.63 0.22
361.00 288.00 0.00 6.65 0.21
362.00 288.00 0.00 6.67 0.20
363.00 288.00 0.00 6.69 0.18
364.00 288.00 0.00 6.71 0.17
365.00 288.00 0.00 6.73 0.16
366.00 288.00 0.00 6.75 0.15
367.00 288.00 0.00 6.77 0.13
368.00 288.00 0.00 6.79 0.12
369.00 288.00 0.00 6.81 0.11
370.00 288.00 0.00 6.83 0.10
371.00 288.00 0.00 6.85 0.09
372.00 288.00 0.00 6.87 0.07
373.00 288.00 0.00 6.89 0.06
374.00 288.00 0.00 6.91 0.05
375.00 288.00 0.00 6.93 0.04
376.00 288.00 0.00 6.95 0.02
377.00 288.00 0.00 6.97 0.01
378.00 288.00 0.00 6.99 -0.00
379.00 288.00 0.00 7.01 -0.01
380.00 288.00 0.00 7.03 -0.02
381.00 288.00 0.00 7.05 -0.04
382.00 288.00 0.00 7.07 -0.05
383.00 288.00 0.00 7.09 -0.06
384.00 288.00 0.00 7.11 -0.07
385.00 288.00 0.00 7.13 -0.09
386.00 288.00 0.00 7.15 -0.10
387.00 288.00 0.00 7.17 -0.11
388.00 288.00 0.00 7.19 -0.12
389.00 288.00 0.00 7.21 -0.13
390.00 288.00 0.00 7.23 -0.15
391.00 288.00 0.00 7.25 -0.16
392.00 288.00 0.00 7.27 -0.17
393.00 288.00 0.00 7.29 -0.18
394.00 288.00 0.00 7.31 -0.20
395.00 288.00 0.00 7.33 -0.21
396.00 288.00 0.00 7.35 -0.22
397.00 288.00 0.00 7.37 -0.23
398.00 288.00 0.00 7.39 -0.24
399.00 288.00 0.00 7.41 -0.26
400.00 288.00 0.00 7.43 -0.27
401.00 288.00 0.00 7.45 -0.28
402.00 288.00 0.00 7.47 -0.29
403.00 288.00 0.00 7.49 -0.31
404.00 288.00 0.00 7.51 -0.32
405.00 288.00 0.00 7.53 -0.33
406.00 288.00 0.00 7.55 -0.34
407.00 288.00 0.00 7.57 -0.35
408.00 288.00 0.00 7.59 -0.37
409.00 288.00 0.00 7.61 -0.38
410.00 288.00 0.00 7.63 -0.39
411.00 288.00 0.00 7.65 -0.40
412.00 288.00 0.00 7.67 -0.42
413.00 288.00 0.00 7.69 -0.43
414.00 288.00 0.00 7.71 -0.44
415.00 288.00 0.00 7.73 -0.45
416.00 288.00 0.00 7.75 -0.46
417.00 288.00 0.00 7.77 -0.48
418.00 288.00 0.00 7.79 -0.49
419.00 288.00 0.00 7.81 -0.50
420.00 288.00 0.00 7.83 -0.51
421.00 288.00 0.00 7.85 -0.52
422.00 288.00 0.00 7.87 -0.54
423.00 288.00 0.00 7.89 -0.55
424.00 288.00 0.00 7.91 -0.56
425.00 288.00 0.00 7.93 -0.57
426.00 288.00 0.00 7.95 -0.59
427.00 288.00 0.00 7.97 -0.60
428.00 288.00 0.00 7.99 -0.61
429.00 288.00 0.00 8.01 -0.62
430.00 288.00 0.00 8.03 -0.63
431.00 288.00 0.00 8.05 -0.65
432.00 288.00 0.00 8.07 -0.66
433.00 288.00 0.00 8.09 -0.67
434.00 288.00 0.00 8.11 -0.68
435.00 288.00 0.00 8.13 -0.70
436.00 288.00 0.00 8.15 -0.71
437.00 288.00 0.00 8.17 -0.72
438.00 288.00 0.00 8.19 -0.73
439.00 288.00 0.00 8.21 -0.74
440.00 288.00 0.00 8.23 -0.76
441.00 288.00 0.00 8.25 -0.77
442.00 288.00 0.00 8.27 -0.78
443.00 288.00 0.00 8.29 -0.79
444.00 288.00 0.00 8.31 -0.80
445.00 288.00 0.00 8.33 -0.82
446.00 288.00 0.00 8.35 -0.83
447.00 288.00 0.00 8.37 -0.84
448.00 288.00 0.00 8.39 -0.85
449.00 288.00 0.00 8.41 -0.87
450.00 288.00 0.00 8.43 -0.88
451.00 288.00 0.00 8.45 -0.89
452.00 288.00 0.00 8.47 -0.90
453.00 288.00 0.00 8.49 -0.91
454.00 288.00 0.00 8.51 -0.93
455.00 288.00 0.00 8.53 -0.94
456.00 288.00 0.00 8.55 -0.95
457.00 288.00 0.00 8.57 -0.96
458.00 288.00 0.00 8.59 -0.97
459.00 288.00 0.00 8.61 -0.99
460.00 288.00 0.00 8.63 -1.00
461.00 288.00 0.00 8.65 -1.01
462.00 288.00 0.00 8.67 -1.02
463.00 288.00 0.00 8.69 -1.03
464.00 288.00 0.00 8.71 -1.05
465.00 288.00 0.00 8.73 -1.06
466.00 288.00 0.00 8.75 -1.07
467.00 288.00 0.00 8.77 -1.08
468.00 288.00 0.00 8.79 -1.10
469.00 288.00 0.00 8.81 -1.11
470.00 288.00 0.00 8.83 -1.12
471.00 288.00 0.00 8.85 -1.13
472.00 288.00 0.00 8.87 -1.14
473.00 288.00 0.00 8.89 -1.16
474.00 288.00 0.00 8.91 -1.17
475.00 288.00 0.00 8.93 -1.18
476.00 288.00 0.00 8.95 -1.19
477.00 288.00 0.00 8.97 -1.20
478.00 288.00 0.00 8.99 -1.22
479.00 288.00 0.00 9.01 -1.23
480.00 288.00 0.00 9.03 -1.24
481.00 288.00 0.00 9.05 -1.25
482.00 288.00 0.00 9.07 -1.26
483.00 288.00 0.00 9.09 -1.28
484.00 288.00 0.00 9.11 -1.29
485.00 288.00 0.00 9.13 -1.30
486.00 288.00 0.00 9.15 -1.31
487.00 288.00 0.00 9.17 -1.32
488.00 288.00 0.00 9.19 -1.34
489.00 288.00 0.00 9.21 -1.35
490.00 288.00 0.00 9.23 -1.36
491.00 288.00 0.00 9.25 -1.37
492.00 288.00 0.00 9.27 -1.38
493.00 288.00 0.00 9.29 -1.40
494.00 288.00 0.00 9.31 -1.41
495.00 288.00 0.00 9.33 -1.42
496.00 288.00 0.00 9.35 -1.43
497.00 288.00 0.00 9.37 -1.44
498.00 288.00 0.00 9.39 -1.46
499.00 288.00 0.00 9.41 -1.47
500.00 288.00 0.00 9.43 -1.48
501.00 288.00 0.00 9.45 -1.49
502.00 288.00 0.00 9.47 -1.50
503.00 288.00 0.00 9.49 -1.51
504.00 288.00 0.00 9.51 -1.53
505.00 288.00 0.00 9.53 -1.54
506.00 288.00 0.00 9.55 -1.55
507.00 288.00 0.00 9.57 -1.56
508.00 288.00 0.00 9.59 -1.57
509.00 288.00 0.00 9.61 -1.58
510.00 288.00 0.00 9.62 -1.59
511.00 288.00 0.00 9.64 -1.61
512.00 288.00 0.00 9.66 -1.62
513.00 288.00 0.00 9.68 -1.63
514.00 288.00 0.00 9.70 -1.64
515.00 288.00 0.00 9.72 -1.65
516.00 288.00 0.00 9.74 -1.66
517.00 288.00 0.00 9.75 -1.67
518.00 288.00 0.00 9.77 -1.68
519.00 288.00 0.00 9.79 -1.69
520.00 288.00 0.00 9.81 -1.70
521.00 288.00 0.00 9.83 -1.71
522.00 288.00 0.00 9.84 -1.72
523.00 288.00 0.00 9.86 -1.73
524.00 288.00 0.00 9.88 -1.75
525.00 288.00 0.00 9.90 -1.76
526.00 288.00 0.00 9.91 -1.77
527.00 288.00 0.00 9.93 -1.78
528.00 288.00 0.00 9.95 -1.79
529.00 288.00 0.00 9.96 -1.80
530.00 288.00 0.00 9.98 -1.81
531.00 288.00 0.00 10.00 -1.82
532.00 288.00 0.00 10.01 -1.82
533.00 288.00 0.00 10.03 -1.83
534.00 288.00 0.00 10.05 -1.84
535.00 288.00 0.00 10.06 -1.85
536.00 288.00 0.00 10.08 -1.86
537.00 288.00 0.00 10.10 -1.87
538.00 288.00 0.00 10.11 -1.88
539.00 288.00 0.00 10.13 -1.89
540.00 288.00 0.00 10.14 -1.90
541.00 288.00 0.00 10.16 -1.91
542.00 288.00 0.00 10.17 -1.92
543.00 288.00 0.00 10.19 -1.93
544.00 288.00 0.00 10.20 -1.94
545.00 288.00 0.00 10.22 -1.94
546.00 288.00 0.00 10.23 -1.95
547.00 288.00 0.00 10.25 -1.96
548.00 288.00 0.00 10.26 -1.97
549.00 288.00 0.00 10.28 -1.98
550.00 288.00 0.00 10.29 -1.99
551.00 288.00 0.00 10.31 -2.00
552.00 288.00 0.00 10.32 -2.00
553.00 288.00 0.00 10.34 -2.01
554.00 288.00 0.00 10.35 -2.02
555.00 288.00 0.00 10.36 -2.03
556.00 288.00 0.00 10.38 -2.04
557.00 288.00 0.00 10.39 -2.05
558.00 288.00 0.00 10.41 -2.05
559.00 288.00 0.00 10.42 -2.06
560.00 288.00 0.00 10.43 -2.07
561.00 288.00 0.00 10.45 -2.08
562.00 288.00 0.00 10.46 -2.08
563.00 288.00 0.00 10.47 -2.09
564.00 288.00 0.00 10.48 -2.10
565.00 288.00 0.00 10.50 -2.11
566.00 288.00 0.00 10.51 -2.11
567.00 288.00 0.00 10.52 -2.12
568.00 288.00 0.00 10.54 -2.13
569.00 288.00 0.00 10.55 -2.14
570.00 288.00 0.00 10.56 -2.14
571.00 288.00 0.00 10.57 -2.15
572.00 288.00 0.00 10.58 -2.16
573.00 288.00 0.00 10.60 -2.16
574.00 288.00 0.00 10.61 -2.17
575.00 288.00 0.00 10.62 -2.18
576.00 288.00 0.00 10.63 -2.18
577.00 288.00 0.00 10.64 -2.19
578.00 288.00 0.00 10.65 -2.20
579.00 288.00 0.00 10.67 -2.20
580.00 288.00 0.00 10.68 -2.21
581.00 288.00 0.00 10.69 -2.22
582.00 288.00 0.00 10.70 -2.22
583.00 288.00 0.00 10.71 -2.23
584.00 288.00 0.00 10.72 -2.24
585.00 288.00 0.00 10.73 -2.24
586.00 288.00 0.00 10.74 -2.25
587.00 288.00 0.00 10.75 -2.25
588.00 288.00 0.00 10.76 -2.26
589.00 288.00 0.00 10.77 -2.27
590.00 288.00 0.00 10.78 -2.27
591.00 288.00 0.00 10.79 -2.28
592.00 288.00 0.00 10.80 -2.28
593.00 288.00 0.00 10.81 -2.29
594.00 288.00 0.00 10.82 -2.29
595.00 288.00 0.00 10.83 -2.30
596.00 288.00 0.00 10.84 -2.31
597.00 288.00 0.00 10.85 -2.31
598.00 288.00 0.00 10.86 -2.32
599.00 288.00 0.00 10.87 -2.32
600.00 288.00 0.00 10.88 -2.33
601.00 288.00 0.00 10.89 -2.33
602.00 288.00 0.00 10.90 -2.34
603.00 288.00 0.00 10.90 -2.34
604.00 288.00 0.00 10.91 -2.35
605.00 288.00 0.00 10.92 -2.35
606.00 288.00 0.00 10.93 -2.36
607.00 288.00 0.00 10.94 -2.36
608.00 288.00 0.00 10.95 -2.37
609.00 288.00 0.00 10.95 -2.37
610.00 288.00 0.00 10.96 -2.37
611.00 288.00 0.00 10.97 -2.38
612.00 288.00 0.00 10.98 -2.38
613.00 288.00 0.00 10.98 -2.39
614.00 288.00 0.00 10.99 -2.39
615.00 288.00 0.00 11.00 -2.40
616.00 288.00 0.00 11.01 -2.40
617.00 288.00 0.00 11.01 -2.40
618.00 288.00 0.00 11.02 -2.41
619.00 288.00 0.00 11.03 -2.41
620.00 288.00 0.00 11.03 -2.42
621.00 288.00 0.00 11.04 -2.42
622.00 288.00 0.00 11.05 -2.42
623.00 288.00 0.00 11.05 -2.43
624.00 288.00 0.00 11.06 -2.43
625.00 288.00 0.00 11.07 -2.43
626.00 288.00 0.00 11.07 -2.44
627.00 288.00 0.00 11.08 -2.44
628.00 288.00 0.00 11.08 -2.44
629.00 288.00 0.00 11.09 -2.45
630.00 288.00 0.00 11.09 -2.45
631.00 288.00 0.00 11.10 -2.45
632.00 288.00 0.00 11.11 -2.46
633.00 288.00 0.00 11.11 -2.46
634.00 288.00 0.00 11.12 -2.46
635.00 288.00 0.00 11.12 -2.47
636.00 288.00 0.00 11.13 -2.47
637.00 288.00 0.00 11.13 -2.47
638.00 288.00 0.00 11.14 -2.47
639.00 288.00 0.00 11.14 -2.48
640.00 288.00 0.00 11.15 -2.48
641.00 288.00 0.00 11.15 -2.48
642.00 288.00 0.00 11.15 -2.48
643.00 288.00 0.00 11.16 -2.49
644.00 288.00 0.00 11.16 -2.49
645.00 288.00 0.00 11.17 -2.49
646.00 288.00 0.00 11.17 -2.49
647.00 288.00 0.00 11.17 -2.49
648.00 288.00 0.00 11.18 -2.50
649.00 288.00 0.00 11.18 -2.50
650.00 288.00 0.00 11.18 -2.50
651.00 288.00 0.00 11.19 -2.50
652.00 288.00 0.00 11.19 -2.50
653.00 288.00 0.00 11.19 -2.51
654.00 288.00 0.00 11.20 -2.51
655.00 288.00 0.00 11.20 -2.51
656.00 288.00 0.00 11.20 -2.51
657.00 288.00 0.00 11.21 -2.51
658.00 288.00 0.00 11.21 -2.51
659.00 288.00 0.00 11.21 -2.51
660.00 288.00 0.00 11.21 -2.52
661.00 288.00 0.00 11.21 -2.52
662.00 288.00 0.00 11.22 -2.52
663.00 288.00 0.00 11.22 -2.52
664.00 288.00 0.00 11.22 -2.52
665.00 288.00 0.00 11.22 -2.52
666.00 288.00 0.00 11.22 -2.52
667.00 288.00 0.00 11.23 -2.52
668.00 288.00 0.00 11.23 -2.52
669.00 288.00 0.00 11.23 -2.52
670.00 288.00 0.00 11.23 -2.53
671.00 288.00 0.00 11.23 -2.53
672.00 288.00 0.00 11.23 -2.53
673.00 288.00 0.00 11.23 -2.53
674.00 288.00 0.00 11.23 -2.53
675.00 288.00 0.00 11.23 -2.53
676.00 288.00 0.00 11.23 -2.53
677.00 288.00 0.00 11.23 -2.53
678.00 288.00 0.00 11.23 -2.53
679.00 288.00 0.00 11.23 -2.53
680.00 288.00 0.00 11.24 -2.53
681.00 288.00 0.00 11.24 -2.53
682.00 288.00 0.00 11.24 -2.53
683.00 288.00 0.00 11.24 -2.53
684.00 288.00 0.00 11.24 -2.53
685.00 288.00 0.00 11.24 -2.53
686.00 288.00 0.00 11.24 -2.53
687.00 288.00 0.00 11.24 -2.53
688.00 288.00 0.00 11.24 -2.53
689.00 288.00 0.00 11.24 -2.53
690.00 288.00 0.00 11.24 -2.53
691.00 288.00 0.00 11.24 -2.53
692.00 288.00 0.00 11.24 -2.53
693.00 288.00 0.00 11.24 -2.53
694.00 288.00 0.00 11.24 -2.53
695.00 288.00 0.00 11.24 -2.53
696.00 288.00 0.00 11.24 -2.53
697.00 288.00 0.00 11.24 -2.53
698.00 288.00 0.00 11.24 -2.53
699.00 288.00 0.00 11.24 -2.53
700.00 288.00 0.00 11.24 -2.53
701.00 288.00 0.00 11.24 -2.53
702.00 288.00 0.00 11.24 -2.53
703.00 288.00 0.00 11.24 -2.53
704.00 288.00 0.00 11.24 -2.53
705.00 288.00 0.00 11.24 -2.53
706.00 288.00 0.00 11.24 -2.53
707.00 288.00 0.00 11.24 -2.53
708.00 288.00 0.00 11.24 -2.53
709.00 288.00 0.00 11.24 -2.53
710.00 288.00 0.00 11.24 -2.53
711.00 288.00 0.00 11.24 -2.53
712.00 288.00 0.00 11.24 -2.53
713.00 288.00 0.00 11.24 -2.53
714.00 288.00 0.00 11.24 -2.53
715.00 288.00 0.00 11.24 -2.53
716.00 288.00 0.00 11.24 -2.53
717.00 288.00 0.00 11.24 -2.53
718.00 288.00 0.00 11.24 -2.53
719.00 288.00 0.00 11.24 -2.53
720.00 288.00 0.00 11.24 -2.53
721.00 288.00 0.00 11.24 -2.53
722.00 288.00 0.00 11.24 -2.53
723.00 288.00 0.00 11.24 -2.53
724.00 288.00 0.00 11.24 -2.53
725.00 288.00 0.00 11.24 -2.53
726.00 288.00 0.00 11.24 -2.53
727.00 288.00 0.00 11.24 -2.53
728.00 288.00 0.00 11.24 -2.53
729.00 288.00 0.00 11.24 -2.53
730.00 288.00 0.00 11.24 -2.53
731.00 288.00 0.00 11.24 -2.53
732.00 288.00 0.00 11.24 -2.53
733.00 288.00 0.00 11.24 -2.53
734.00 288.00 0.00 11.24 -2.53
735.00 288.00 0.00 11.24 -2.53
736.00 288.00 0.00 11.24 -2.53
737.00 288.00 0.00 11.24 -2.53
738.00 288.00 0.00 11.24 -2.53
739.00 288.00 0.00 11.24 -2.53
740.00 288.00 0.00 11.24 -2.53
741.00 288.00 0.00 11.24 -2.53
742.00 288.00 0.00 11.24 -2.53
743.00 288.00 0.00 11.24 -2.53
744.00 288.00 0.00 11.24 -2.53
745.00 288.00 0.00 11.24 -2.53
746.00 288.00 0.00 11.24 -2.53
747.00 288.00 0.00 11.24 -2.53
748.00 288.00 0.00 11.24 -2.53
749.00 288.00 0.00 11.24 -2.53
750.00 288.00 0.00 11.24 -2.53
751.00 288.00 0.00 11.24 -2.53
752.00 288.00 0.00 11.24 -2.53
753.00 288.00 0.00 11.24 -2.53
754.00 288.00 0.00 11.24 -2.53
755.00 288.00 0.00 11.24 -2.53
756.00 288.00 0.00 11.24 -2.53
757.00 288.00 0.00 11.24 -2.53
758.00 288.00 0.00 11.24 -2.53
759.00 288.00 0.00 11.24 -2.53
760.00 288.00 0.00 11.24 -2.53
761.00 288.00 0.00 11.24 -2.53
762.00 288.00 0.00 11.24 -2.53
763.00 288.00 0.00 11.24 -2.53
764.00 288.00 0.00 11.24 -2.53
765.00 288.00 0.00 11.24 -2.53
766.00 288.00 0.00 11.24 -2.53
767.00 288.00 0.00 11.24 -2.53
768.00 288.00 0.00 11.24 -2.53
769.00 288.00 0.00 11.24 -2.53
770.00 288.00 0.00 11.24 -2.53
771.00 288.00 0.00 11.24 -2.53
772.00 288.00 0.00 11.24 -2.53
773.00 288.00 0.00 11.24 -2.53
774.00 288.00 0.00 11.24 -2.53
775.00 288.00 0.00 11.24 -2.53
776.00 288.00 0.00 11.24 -2.53
777.00 288.00 0.00 11.24 -2.53
778.00 288.00 0.00 11.24 -2.53
779.00 288.00 0.00 11.24 -2.53
780.00 288.00 0.00 11.24 -2.53
781.00 288.00 0.00 11.24 -2.53
782.00 288.00 0.00 11.24 -2.53
783.00 288.00 0.00 11.24 -2.53
784.00 288.00 0.00 11.24 -2.53
785.00 288.00 0.00 11.24 -2.53
786.00 288.00 0.00 11.24 -2.53
787.00 288.00 0.00 11.24 -2.53
788.00 288.00 0.00 11.24 -2.53
789.00 288.00 0.00 11.24 -2.53
790.00 288.00 0.00 11.24 -2.53
791.00 288.00 0.00 11.24 -2.53
792.00 288.00 0.00 11.24 -2.53
793.00 288.00 0.00 11.24 -2.53
794.00 288.00 0.00 11.24 -2.53
795.00 288.00 0.00 11.24 -2.53
796.00 288.00 0.00 11.24 -2.53
797.00 288.00 0.00 11.24 -2.53
798.00 288.00 0.00 11.24 -2.53
799.00 288.00 0.00 11.24 -2.53
800.00 288.00 0.00 11.24 -2.53
801.00 288.00 0.00 11.24 -2.53
802.00 288.00 0.00 11.24 -2.53
803.00 288.00 0.00 11.24 -2.53
804.00 288.00 0.00 11.24 -2.53
805.00 288.00 0.00 11.24 -2.53
806.00 288.00 0.00 11.24 -2.53
807.00 288.00 0.00 11.24 -2.53
808.00 288.00 0.00 11.24 -2.53
809.00 288.00 0.00 11.24 -2.53
810.00 288.00 0.00 11.24 -2.53
811.00 288.00 0.00 11.24 -2.53
812.00 288.00 0.00 11.24 -2.53
813.00 288.00 0.00 11.24 -2.53
814.00 288.00 0.00 11.24 -2.53
815.00 288.00 0.00 11.24 -2.53
816.00 288.00 0.00 11.24 -2.53
817.00 288.00 0.00 11.24 -2.53
818.00 288.00 0.00 11.24 -2.53
819.00 288.00 0.00 11.24 -2.53
820.00 288.00 0.00 11.24 -2.53
821.00 288.00 0.00 11.24 -2.53
822.00 288.00 0.00 11.24 -2.53
823.00 288.00 0.00 11.24 -2.53
824.00 288.00 0.00 11.24 -2.53
825.00 288.00 0.00 11.24 -2.53
826.00 288.00 0.00 11.24 -2.53
827.00 288.00 0.00 11.24 -2.53
828.00 288.00 0.00 11.24 -2.53
829.00 288.00 0.00 11.24 -2.53
830.00 288.00 0.00 11.24 -2.53
831.00 288.00 0.00 11.24 -2.53
