1000.00 288.00 00.00
0.00 288.00 0.00 8.75 5.55
1.00 288.00 0.00 8.75 5.55
2.00 288.00 0.00 8.75 5.55
3.00 288.00 0.00 8.75 5.55
4.00 288.00 0.00 8.75 5.55
5.00 288.00 0.00 8.75 5.55
6.00 288.00 0.00 8.75 5.55
7.00 288.00 0.00 8.75 5.55
8.00 288.00 0.00 8.75 5.55
9.00 288.00 0.00 8.75 5.55
10.00 288.00 0.00 8.75 5.55
11.00 288.00 0.00 8.75 5.55
12.00 288.00 0.00 8.75 5.55
13.00 288.00 0.00 8.75 5.55
14.00 288.00 0.00 8.75 5.55
15.00 288.00 0.00 8.75 5.55
16.00 288.00 0.00 8.75 5.55
17.00 288.00 0.00 8.75 5.55
18.00 288.00 0.00 8.75 5.55
19.00 288.00 0.00 8.75 5.55
20.00 288.00 0.00 8.75 5.55
21.00 288.00 0.00 8.75 5.55
22.00 288.00 0.00 8.75 5.55
23.00 288.00 0.00 8.75 5.55
24.00 288.00 0.00 8.75 5.55
25.00 288.00 0.00 8.75 5.55
26.00 288.00 0.00 8.75 5.55
27.00 288.00 0.00 8.75 5.55
28.00 288.00 0.00 8.75 5.55
29.00 288.00 0.00 8.75 5.55
30.00 288.00 0.00 8.75 5.55
31.00 288.00 0.00 8.75 5.55
32.00 288.00 0.00 8.75 5.55
33.00 288.00 0.00 8.75 5.55
34.00 288.00 0.00 8.75 5.55
35.00 288.00 0.00 8.75 5.55
36.00 288.00 0.00 8.75 5.55
37.00 288.00 0.00 8.75 5.55
38.00 288.00 0.00 8.75 5.55
39.00 288.00 0.00 8.75 5.55
40.00 288.00 0.00 8.75 5.55
41.00 288.00 0.00 8.75 5.55
42.00 288.00 0.00 8.75 5.55
43.00 288.00 0.00 8.75 5.55
44.00 288.00 0.00 8.75 5.55
45.00 288.00 0.00 8.75 5.55
46.00 288.00 0.00 8.75 5.55
47.00 288.00 0.00 8.75 5.55
48.00 288.00 0.00 8.75 5.55
49.00 288.00 0.00 8.75 5.55
50.00 288.00 0.00 8.75 5.55
51.00 288.00 0.00 8.75 5.55
52.00 288.00 0.00 8.75 5.55
53.00 288.00 0.00 8.75 5.55
54.00 288.00 0.00 8.75 5.55
55.00 288.00 0.00 8.75 5.55
56.00 288.00 0.00 8.75 5.55
57.00 288.00 0.00 8.75 5.55
58.00 288.00 0.00 8.75 5.55
59.00 288.00 0.00 8.75 5.55
60.00 288.00 0.00 8.75 5.55
61.00 288.00 0.00 8.75 5.55
62.00 288.00 0.00 8.75 5.55
63.00 288.00 0.00 8.75 5.55
64.00 288.00 0.00 8.75 5.55
65.00 288.00 0.00 8.75 5.55
66.00 288.00 0.00 8.75 5.55
67.00 288.00 0.00 8.75 5.55
68.00 288.00 0.00 8.75 5.55
69.00 288.00 0.00 8.75 5.55
70.00 288.00 0.00 8.75 5.55
71.00 288.00 0.00 8.75 5.55
72.00 288.00 0.00 8.75 5.55
73.00 288.00 0.00 8.75 5.55
74.00 288.00 0.00 8.75 5.55
75.00 288.00 0.00 8.75 5.55
76.00 288.00 0.00 8.75 5.55
77.00 288.00 0.00 8.75 5.55
78.00 288.00 0.00 8.75 5.55
79.00 288.00 0.00 8.75 5.55
80.00 288.00 0.00 8.75 5.55
81.00 288.00 0.00 8.75 5.55
82.00 288.00 0.00 8.75 5.55
83.00 288.00 0.00 8.75 5.55
84.00 288.00 0.00 8.75 5.55
85.00 288.00 0.00 8.75 5.55
86.00 288.00 0.00 8.75 5.55
87.00 288.00 0.00 8.75 5.55
88.00 288.00 0.00 8.75 5.55
89.00 288.00 0.00 8.75 5.55
90.00 288.00 0.00 8.75 5.55
91.00 288.00 0.00 8.75 5.55
92.00 288.00 0.00 8.75 5.55
93.00 288.00 0.00 8.75 5.55
94.00 288.00 0.00 8.75 5.55
95.00 288.00 0.00 8.75 5.55
96.00 288.00 0.00 8.75 5.55
97.00 288.00 0.00 8.75 5.55
98.00 288.00 0.00 8.75 5.55
99.00 288.00 0.00 8.75 5.55
100.00 288.00 0.00 8.75 5.55
101.00 288.00 0.00 8.75 5.55
102.00 288.00 0.00 8.75 5.55
103.00 288.00 0.00 8.75 5.55
104.00 288.00 0.00 8.75 5.55
105.00 288.00 0.00 8.75 5.55
106.00 288.00 0.00 8.75 5.55
107.00 288.00 0.00 8.75 5.55
108.00 288.00 0.00 8.75 5.55
109.00 288.00 0.00 8.75 5.55
110.00 288.00 0.00 8.75 5.55
111.00 288.00 0.00 8.75 5.55
112.00 288.00 0.00 8.75 5.55
113.00 288.00 0.00 8.75 5.55
114.00 288.00 0.00 8.75 5.55
115.00 288.00 0.00 8.75 5.55
116.00 288.00 0.00 8.75 5.55
117.00 288.00 0.00 8.75 5.55
118.00 288.00 0.00 8.75 5.55
119.00 288.00 0.00 8.75 5.55
120.00 288.00 0.00 8.75 5.55
121.00 288.00 0.00 8.75 5.55
122.00 288.00 0.00 8.75 5.55
123.00 288.00 0.00 8.75 5.55
124.00 288.00 0.00 8.75 5.55
125.00 288.00 0.00 8.75 5.55
126.00 288.00 0.00 8.75 5.54
127.00 288.00 0.00 8.75 5.54
128.00 288.00 0.00 8.74 5.54
129.00 288.00 0.00 8.74 5.54
130.00 288.00 0.00 8.74 5.54
131.00 288.00 0.00 8.74 5.54
132.00 288.00 0.00 8.74 5.53
133.00 288.00 0.00 8.74 5.53
134.00 288.00 0.00 8.74 5.53
135.00 288.00 0.00 8.74 5.53
136.00 288.00 0.00 8.74 5.52
137.00 288.00 0.00 8.74 5.52
138.00 288.00 0.00 8.73 5.52
139.00 288.00 0.00 8.73 5.51
140.00 288.00 0.00 8.73 5.51
141.00 288.00 0.00 8.73 5.51
142.00 288.00 0.00 8.73 5.50
143.00 288.00 0.00 8.73 5.50
144.00 288.00 0.00 8.73 5.50
145.00 288.00 0.00 8.72 5.49
146.00 288.00 0.00 8.72 5.49
147.00 288.00 0.00 8.72 5.48
148.00 288.00 0.00 8.72 5.48
149.00 288.00 0.00 8.72 5.48
150.00 288.00 0.00 8.71 5.47
151.00 288.00 0.00 8.71 5.47
152.00 288.00 0.00 8.71 5.46
153.00 288.00 0.00 8.71 5.46
154.00 288.00 0.00 8.71 5.45
155.00 288.00 0.00 8.70 5.45
156.00 288.00 0.00 8.70 5.44
157.00 288.00 0.00 8.70 5.44
158.00 288.00 0.00 8.70 5.43
159.00 288.00 0.00 8.69 5.42
160.00 288.00 0.00 8.69 5.42
161.00 288.00 0.00 8.69 5.41
162.00 288.00 0.00 8.69 5.41
163.00 288.00 0.00 8.68 5.40
164.00 288.00 0.00 8.68 5.39
165.00 288.00 0.00 8.68 5.39
166.00 288.00 0.00 8.68 5.38
167.00 288.00 0.00 8.67 5.37
168.00 288.00 0.00 8.67 5.37
169.00 288.00 0.00 8.67 5.36
170.00 288.00 0.00 8.66 5.35
171.00 288.00 0.00 8.66 5.34
172.00 288.00 0.00 8.66 5.34
173.00 288.00 0.00 8.65 5.33
174.00 288.00 0.00 8.65 5.32
175.00 288.00 0.00 8.65 5.31
176.00 288.00 0.00 8.64 5.30
177.00 288.00 0.00 8.64 5.30
178.00 288.00 0.00 8.64 5.29
179.00 288.00 0.00 8.63 5.28
180.00 288.00 0.00 8.63 5.27
181.00 288.00 0.00 8.63 5.26
182.00 288.00 0.00 8.62 5.25
183.00 288.00 0.00 8.62 5.24
184.00 288.00 0.00 8.61 5.23
185.00 288.00 0.00 8.61 5.22
186.00 288.00 0.00 8.61 5.21
187.00 288.00 0.00 8.60 5.20
188.00 288.00 0.00 8.60 5.19
189.00 288.00 0.00 8.59 5.18
190.00 288.00 0.00 8.59 5.17
191.00 288.00 0.00 8.59 5.16
192.00 288.00 0.00 8.58 5.15
193.00 288.00 0.00 8.58 5.14
194.00 288.00 0.00 8.57 5.13
195.00 288.00 0.00 8.57 5.12
196.00 288.00 0.00 8.56 5.11
197.00 288.00 0.00 8.56 5.10
198.00 288.00 0.00 8.55 5.08
199.00 288.00 0.00 8.55 5.07
200.00 288.00 0.00 8.55 5.06
201.00 288.00 0.00 8.54 5.05
202.00 288.00 0.00 8.54 5.04
203.00 288.00 0.00 8.53 5.02
204.00 288.00 0.00 8.53 5.01
205.00 288.00 0.00 8.52 5.00
206.00 288.00 0.00 8.52 4.98
207.00 288.00 0.00 8.51 4.97
208.00 288.00 0.00 8.51 4.96
209.00 288.00 0.00 8.50 4.94
210.00 288.00 0.00 8.49 4.93
211.00 288.00 0.00 8.49 4.92
212.00 288.00 0.00 8.48 4.90
213.00 288.00 0.00 8.48 4.89
214.00 288.00 0.00 8.47 4.87
215.00 288.00 0.00 8.47 4.86
216.00 288.00 0.00 8.46 4.84
217.00 288.00 0.00 8.46 4.83
218.00 288.00 0.00 8.45 4.81
219.00 288.00 0.00 8.44 4.80
220.00 288.00 0.00 8.44 4.78
221.00 288.00 0.00 8.43 4.76
222.00 288.00 0.00 8.43 4.75
223.00 288.00 0.00 8.42 4.73
224.00 288.00 0.00 8.41 4.72
225.00 288.00 0.00 8.41 4.70
226.00 288.00 0.00 8.40 4.68
227.00 288.00 0.00 8.40 4.66
228.00 288.00 0.00 8.39 4.65
229.00 288.00 0.00 8.38 4.63
230.00 288.00 0.00 8.38 4.61
231.00 288.00 0.00 8.37 4.59
232.00 288.00 0.00 8.36 4.58
233.00 288.00 0.00 8.36 4.56
234.00 288.00 0.00 8.35 4.54
235.00 288.00 0.00 8.34 4.52
236.00 288.00 0.00 8.34 4.50
237.00 288.00 0.00 8.33 4.48
238.00 288.00 0.00 8.32 4.46
239.00 288.00 0.00 8.32 4.44
240.00 288.00 0.00 8.31 4.42
241.00 288.00 0.00 8.30 4.40
242.00 288.00 0.00 8.30 4.38
243.00 288.00 0.00 8.29 4.36
244.00 288.00 0.00 8.28 4.34
245.00 288.00 0.00 8.27 4.32
246.00 288.00 0.00 8.27 4.30
247.00 288.00 0.00 8.26 4.28
248.00 288.00 0.00 8.25 4.26
249.00 288.00 0.00 8.24 4.23
250.00 288.00 0.00 8.24 4.21
251.00 288.00 0.00 8.23 4.19
252.00 288.00 0.00 8.22 4.17
253.00 288.00 0.00 8.21 4.14
254.00 288.00 0.00 8.21 4.12
255.00 288.00 0.00 8.20 4.10
256.00 288.00 0.00 8.19 4.07
257.00 288.00 0.00 8.18 4.05
258.00 288.00 0.00 8.17 4.03
259.00 288.00 0.00 8.17 4.00
260.00 288.00 0.00 8.16 3.98
261.00 288.00 0.00 8.15 3.95
262.00 288.00 0.00 8.14 3.93
263.00 288.00 0.00 8.13 3.90
264.00 288.00 0.00 8.13 3.88
265.00 288.00 0.00 8.12 3.85
266.00 288.00 0.00 8.11 3.82
267.00 288.00 0.00 8.10 3.80
268.00 288.00 0.00 8.09 3.77
269.00 288.00 0.00 8.08 3.75
270.00 288.00 0.00 8.07 3.72
271.00 288.00 0.00 8.07 3.69
272.00 288.00 0.00 8.06 3.66
273.00 288.00 0.00 8.05 3.64
274.00 288.00 0.00 8.04 3.61
275.00 288.00 0.00 8.03 3.58
276.00 288.00 0.00 8.02 3.55
277.00 288.00 0.00 8.01 3.52
278.00 288.00 0.00 8.00 3.49
279.00 288.00 0.00 7.99 3.46
280.00 288.00 0.00 7.98 3.43
281.00 288.00 0.00 7.97 3.41
282.00 288.00 0.00 7.97 3.38
283.00 288.00 0.00 7.96 3.34
284.00 288.00 0.00 7.95 3.31
285.00 288.00 0.00 7.94 3.28
286.00 288.00 0.00 7.93 3.25
287.00 288.00 0.00 7.92 3.22
288.00 288.00 0.00 7.91 3.19
289.00 288.00 0.00 7.90 3.16
290.00 288.00 0.00 7.89 3.13
291.00 288.00 0.00 7.88 3.09
292.00 288.00 0.00 7.87 3.06
293.00 288.00 0.00 7.86 3.03
294.00 288.00 0.00 7.85 2.99
295.00 288.00 0.00 7.84 2.96
296.00 288.00 0.00 7.83 2.93
297.00 288.00 0.00 7.82 2.89
298.00 288.00 0.00 7.81 2.86
299.00 288.00 0.00 7.80 2.83
300.00 288.00 0.00 7.79 2.79
301.00 288.00 0.00 7.78 2.76
302.00 288.00 0.00 7.77 2.73
303.00 288.00 0.00 7.76 2.69
304.00 288.00 0.00 7.75 2.66
305.00 288.00 0.00 7.74 2.62
306.00 288.00 0.00 7.73 2.59
307.00 288.00 0.00 7.72 2.55
308.00 288.00 0.00 7.71 2.52
309.00 288.00 0.00 7.70 2.49
310.00 288.00 0.00 7.69 2.45
311.00 288.00 0.00 7.68 2.42
312.00 288.00 0.00 7.67 2.38
313.00 288.00 0.00 7.66 2.35
314.00 288.00 0.00 7.65 2.31
315.00 288.00 0.00 7.64 2.28
316.00 288.00 0.00 7.63 2.24
317.00 288.00 0.00 7.62 2.21
318.00 288.00 0.00 7.61 2.17
319.00 288.00 0.00 7.60 2.14
320.00 288.00 0.00 7.59 2.10
321.00 288.00 0.00 7.58 2.07
322.00 288.00 0.00 7.57 2.03
323.00 288.00 0.00 7.56 2.00
324.00 288.00 0.00 7.55 1.96
325.00 288.00 0.00 7.54 1.93
326.00 288.00 0.00 7.53 1.89
327.00 288.00 0.00 7.52 1.86
328.00 288.00 0.00 7.51 1.82
329.00 288.00 0.00 7.50 1.79
330.00 288.00 0.00 7.49 1.75
331.00 288.00 0.00 7.48 1.71
332.00 288.00 0.00 7.47 1.68
333.00 288.00 0.00 7.46 1.64
334.00 288.00 0.00 7.45 1.61
335.00 288.00 0.00 7.44 1.57
336.00 288.00 0.00 7.43 1.53
337.00 288.00 0.00 7.42 1.50
338.00 288.00 0.00 7.41 1.46
339.00 288.00 0.00 7.40 1.43
340.00 288.00 0.00 7.39 1.39
341.00 288.00 0.00 7.38 1.35
342.00 288.00 0.00 7.37 1.32
343.00 288.00 0.00 7.36 1.28
344.00 288.00 0.00 7.35 1.25
345.00 288.00 0.00 7.34 1.21
346.00 288.00 0.00 7.33 1.17
347.00 288.00 0.00 7.32 1.14
348.00 288.00 0.00 7.31 1.10
349.00 288.00 0.00 7.30 1.06
350.00 288.00 0.00 7.29 1.03
351.00 288.00 0.00 7.28 0.99
352.00 288.00 0.00 7.27 0.95
353.00 288.00 0.00 7.26 0.92
354.00 288.00 0.00 7.25 0.88
355.00 288.00 0.00 7.24 0.85
356.00 288.00 0.00 7.23 0.81
357.00 288.00 0.00 7.22 0.77
358.00 288.00 0.00 7.21 0.74
359.00 288.00 0.00 7.20 0.70
360.00 288.00 0.00 7.19 0.66
361.00 288.00 0.00 7.18 0.63
362.00 288.00 0.00 7.17 0.59
363.00 288.00 0.00 7.16 0.55
364.00 288.00 0.00 7.15 0.52
365.00 288.00 0.00 7.14 0.48
366.00 288.00 0.00 7.13 0.44
367.00 288.00 0.00 7.12 0.40
368.00 288.00 0.00 7.11 0.37
369.00 288.00 0.00 7.10 0.33
370.00 288.00 0.00 7.09 0.29
371.00 288.00 0.00 7.08 0.26
372.00 288.00 0.00 7.07 0.22
373.00 288.00 0.00 7.06 0.18
374.00 288.00 0.00 7.05 0.15
375.00 288.00 0.00 7.04 0.11
376.00 288.00 0.00 7.03 0.07
377.00 288.00 0.00 7.02 0.04
378.00 288.00 0.00 7.01 -0.00
379.00 288.00 0.00 6.99 -0.04
380.00 288.00 0.00 6.98 -0.07
381.00 288.00 0.00 6.97 -0.11
382.00 288.00 0.00 6.96 -0.15
383.00 288.00 0.00 6.95 -0.18
384.00 288.00 0.00 6.94 -0.22
385.00 288.00 0.00 6.93 -0.26
386.00 288.00 0.00 6.92 -0.29
387.00 288.00 0.00 6.91 -0.33
388.00 288.00 0.00 6.90 -0.37
389.00 288.00 0.00 6.89 -0.40
390.00 288.00 0.00 6.88 -0.44
391.00 288.00 0.00 6.87 -0.48
392.00 288.00 0.00 6.86 -0.52
393.00 288.00 0.00 6.85 -0.55
394.00 288.00 0.00 6.84 -0.59
395.00 288.00 0.00 6.83 -0.63
396.00 288.00 0.00 6.82 -0.66
397.00 288.00 0.00 6.81 -0.70
398.00 288.00 0.00 6.80 -0.74
399.00 288.00 0.00 6.79 -0.77
400.00 288.00 0.00 6.78 -0.81
401.00 288.00 0.00 6.77 -0.85
402.00 288.00 0.00 6.76 -0.88
403.00 288.00 0.00 6.75 -0.92
404.00 288.00 0.00 6.74 -0.95
405.00 288.00 0.00 6.73 -0.99
406.00 288.00 0.00 6.72 -1.03
407.00 288.00 0.00 6.71 -1.06
408.00 288.00 0.00 6.70 -1.10
409.00 288.00 0.00 6.69 -1.14
410.00 288.00 0.00 6.68 -1.17
411.00 288.00 0.00 6.67 -1.21
412.00 288.00 0.00 6.66 -1.25
413.00 288.00 0.00 6.65 -1.28
414.00 288.00 0.00 6.64 -1.32
415.00 288.00 0.00 6.63 -1.35
416.00 288.00 0.00 6.62 -1.39
417.00 288.00 0.00 6.61 -1.43
418.00 288.00 0.00 6.60 -1.46
419.00 288.00 0.00 6.59 -1.50
420.00 288.00 0.00 6.58 -1.53
421.00 288.00 0.00 6.57 -1.57
422.00 288.00 0.00 6.56 -1.61
423.00 288.00 0.00 6.55 -1.64
424.00 288.00 0.00 6.54 -1.68
425.00 288.00 0.00 6.53 -1.71
426.00 288.00 0.00 6.52 -1.75
427.00 288.00 0.00 6.51 -1.79
428.00 288.00 0.00 6.50 -1.82
429.00 288.00 0.00 6.49 -1.86
430.00 288.00 0.00 6.48 -1.89
431.00 288.00 0.00 6.47 -1.93
432.00 288.00 0.00 6.46 -1.96
433.00 288.00 0.00 6.45 -2.00
434.00 288.00 0.00 6.44 -2.03
435.00 288.00 0.00 6.43 -2.07
436.00 288.00 0.00 6.42 -2.10
437.00 288.00 0.00 6.41 -2.14
438.00 288.00 0.00 6.40 -2.17
439.00 288.00 0.00 6.39 -2.21
440.00 288.00 0.00 6.38 -2.24
441.00 288.00 0.00 6.37 -2.28
442.00 288.00 0.00 6.36 -2.31
443.00 288.00 0.00 6.35 -2.35
444.00 288.00 0.00 6.34 -2.38
445.00 288.00 0.00 6.33 -2.42
446.00 288.00 0.00 6.32 -2.45
447.00 288.00 0.00 6.31 -2.49
448.00 288.00 0.00 6.30 -2.52
449.00 288.00 0.00 6.29 -2.55
450.00 288.00 0.00 6.28 -2.59
451.00 288.00 0.00 6.27 -2.62
452.00 288.00 0.00 6.26 -2.66
453.00 288.00 0.00 6.25 -2.69
454.00 288.00 0.00 6.24 -2.73
455.00 288.00 0.00 6.23 -2.76
456.00 288.00 0.00 6.22 -2.79
457.00 288.00 0.00 6.21 -2.83
458.00 288.00 0.00 6.20 -2.86
459.00 288.00 0.00 6.19 -2.89
460.00 288.00 0.00 6.18 -2.93
461.00 288.00 0.00 6.17 -2.96
462.00 288.00 0.00 6.16 -2.99
463.00 288.00 0.00 6.15 -3.03
464.00 288.00 0.00 6.14 -3.06
465.00 288.00 0.00 6.13 -3.09
466.00 288.00 0.00 6.12 -3.13
467.00 288.00 0.00 6.11 -3.16
468.00 288.00 0.00 6.10 -3.19
469.00 288.00 0.00 6.09 -3.22
470.00 288.00 0.00 6.08 -3.25
471.00 288.00 0.00 6.07 -3.28
472.00 288.00 0.00 6.06 -3.31
473.00 288.00 0.00 6.05 -3.34
474.00 288.00 0.00 6.04 -3.38
475.00 288.00 0.00 6.03 -3.41
476.00 288.00 0.00 6.03 -3.43
477.00 288.00 0.00 6.02 -3.46
478.00 288.00 0.00 6.01 -3.49
479.00 288.00 0.00 6.00 -3.52
480.00 288.00 0.00 5.99 -3.55
481.00 288.00 0.00 5.98 -3.58
482.00 288.00 0.00 5.97 -3.61
483.00 288.00 0.00 5.96 -3.64
484.00 288.00 0.00 5.95 -3.66
485.00 288.00 0.00 5.94 -3.69
486.00 288.00 0.00 5.93 -3.72
487.00 288.00 0.00 5.93 -3.75
488.00 288.00 0.00 5.92 -3.77
489.00 288.00 0.00 5.91 -3.80
490.00 288.00 0.00 5.90 -3.82
491.00 288.00 0.00 5.89 -3.85
492.00 288.00 0.00 5.88 -3.88
493.00 288.00 0.00 5.87 -3.90
494.00 288.00 0.00 5.87 -3.93
495.00 288.00 0.00 5.86 -3.95
496.00 288.00 0.00 5.85 -3.98
497.00 288.00 0.00 5.84 -4.00
498.00 288.00 0.00 5.83 -4.03
499.00 288.00 0.00 5.83 -4.05
500.00 288.00 0.00 5.82 -4.07
501.00 288.00 0.00 5.81 -4.10
502.00 288.00 0.00 5.80 -4.12
503.00 288.00 0.00 5.79 -4.14
504.00 288.00 0.00 5.79 -4.17
505.00 288.00 0.00 5.78 -4.19
506.00 288.00 0.00 5.77 -4.21
507.00 288.00 0.00 5.76 -4.23
508.00 288.00 0.00 5.76 -4.26
509.00 288.00 0.00 5.75 -4.28
510.00 288.00 0.00 5.74 -4.30
511.00 288.00 0.00 5.73 -4.32
512.00 288.00 0.00 5.73 -4.34
513.00 288.00 0.00 5.72 -4.36
514.00 288.00 0.00 5.71 -4.38
515.00 288.00 0.00 5.70 -4.40
516.00 288.00 0.00 5.70 -4.42
517.00 288.00 0.00 5.69 -4.44
518.00 288.00 0.00 5.68 -4.46
519.00 288.00 0.00 5.68 -4.48
520.00 288.00 0.00 5.67 -4.50
521.00 288.00 0.00 5.66 -4.52
522.00 288.00 0.00 5.66 -4.54
523.00 288.00 0.00 5.65 -4.56
524.00 288.00 0.00 5.64 -4.58
525.00 288.00 0.00 5.64 -4.59
526.00 288.00 0.00 5.63 -4.61
527.00 288.00 0.00 5.62 -4.63
528.00 288.00 0.00 5.62 -4.65
529.00 288.00 0.00 5.61 -4.66
530.00 288.00 0.00 5.60 -4.68
531.00 288.00 0.00 5.60 -4.70
532.00 288.00 0.00 5.59 -4.72
533.00 288.00 0.00 5.59 -4.73
534.00 288.00 0.00 5.58 -4.75
535.00 288.00 0.00 5.57 -4.76
536.00 288.00 0.00 5.57 -4.78
537.00 288.00 0.00 5.56 -4.80
538.00 288.00 0.00 5.56 -4.81
539.00 288.00 0.00 5.55 -4.83
540.00 288.00 0.00 5.54 -4.84
541.00 288.00 0.00 5.54 -4.86
542.00 288.00 0.00 5.53 -4.87
543.00 288.00 0.00 5.53 -4.89
544.00 288.00 0.00 5.52 -4.90
545.00 288.00 0.00 5.52 -4.92
546.00 288.00 0.00 5.51 -4.93
547.00 288.00 0.00 5.51 -4.94
548.00 288.00 0.00 5.50 -4.96
549.00 288.00 0.00 5.49 -4.97
550.00 288.00 0.00 5.49 -4.98
551.00 288.00 0.00 5.48 -5.00
552.00 288.00 0.00 5.48 -5.01
553.00 288.00 0.00 5.47 -5.02
554.00 288.00 0.00 5.47 -5.04
555.00 288.00 0.00 5.46 -5.05
556.00 288.00 0.00 5.46 -5.06
557.00 288.00 0.00 5.45 -5.07
558.00 288.00 0.00 5.45 -5.08
559.00 288.00 0.00 5.45 -5.10
560.00 288.00 0.00 5.44 -5.11
561.00 288.00 0.00 5.44 -5.12
562.00 288.00 0.00 5.43 -5.13
563.00 288.00 0.00 5.43 -5.14
564.00 288.00 0.00 5.42 -5.15
565.00 288.00 0.00 5.42 -5.16
566.00 288.00 0.00 5.41 -5.17
567.00 288.00 0.00 5.41 -5.18
568.00 288.00 0.00 5.41 -5.19
569.00 288.00 0.00 5.40 -5.20
570.00 288.00 0.00 5.40 -5.21
571.00 288.00 0.00 5.39 -5.22
572.00 288.00 0.00 5.39 -5.23
573.00 288.00 0.00 5.39 -5.24
574.00 288.00 0.00 5.38 -5.25
575.00 288.00 0.00 5.38 -5.26
576.00 288.00 0.00 5.37 -5.27
577.00 288.00 0.00 5.37 -5.28
578.00 288.00 0.00 5.37 -5.29
579.00 288.00 0.00 5.36 -5.30
580.00 288.00 0.00 5.36 -5.30
581.00 288.00 0.00 5.36 -5.31
582.00 288.00 0.00 5.35 -5.32
583.00 288.00 0.00 5.35 -5.33
584.00 288.00 0.00 5.35 -5.34
585.00 288.00 0.00 5.34 -5.34
586.00 288.00 0.00 5.34 -5.35
587.00 288.00 0.00 5.34 -5.36
588.00 288.00 0.00 5.33 -5.37
589.00 288.00 0.00 5.33 -5.37
590.00 288.00 0.00 5.33 -5.38
591.00 288.00 0.00 5.32 -5.39
592.00 288.00 0.00 5.32 -5.39
593.00 288.00 0.00 5.32 -5.40
594.00 288.00 0.00 5.32 -5.41
595.00 288.00 0.00 5.31 -5.41
596.00 288.00 0.00 5.31 -5.42
597.00 288.00 0.00 5.31 -5.42
598.00 288.00 0.00 5.31 -5.43
599.00 288.00 0.00 5.30 -5.44
600.00 288.00 0.00 5.30 -5.44
601.00 288.00 0.00 5.30 -5.45
602.00 288.00 0.00 5.30 -5.45
603.00 288.00 0.00 5.29 -5.46
604.00 288.00 0.00 5.29 -5.46
605.00 288.00 0.00 5.29 -5.47
606.00 288.00 0.00 5.29 -5.47
607.00 288.00 0.00 5.29 -5.48
608.00 288.00 0.00 5.28 -5.48
609.00 288.00 0.00 5.28 -5.48
610.00 288.00 0.00 5.28 -5.49
611.00 288.00 0.00 5.28 -5.49
612.00 288.00 0.00 5.28 -5.50
613.00 288.00 0.00 5.27 -5.50
614.00 288.00 0.00 5.27 -5.50
615.00 288.00 0.00 5.27 -5.51
616.00 288.00 0.00 5.27 -5.51
617.00 288.00 0.00 5.27 -5.51
618.00 288.00 0.00 5.27 -5.52
619.00 288.00 0.00 5.27 -5.52
620.00 288.00 0.00 5.26 -5.52
621.00 288.00 0.00 5.26 -5.53
622.00 288.00 0.00 5.26 -5.53
623.00 288.00 0.00 5.26 -5.53
624.00 288.00 0.00 5.26 -5.53
625.00 288.00 0.00 5.26 -5.54
626.00 288.00 0.00 5.26 -5.54
627.00 288.00 0.00 5.26 -5.54
628.00 288.00 0.00 5.26 -5.54
629.00 288.00 0.00 5.26 -5.54
630.00 288.00 0.00 5.25 -5.54
631.00 288.00 0.00 5.25 -5.55
632.00 288.00 0.00 5.25 -5.55
633.00 288.00 0.00 5.25 -5.55
634.00 288.00 0.00 5.25 -5.55
635.00 288.00 0.00 5.25 -5.55
636.00 288.00 0.00 5.25 -5.55
637.00 288.00 0.00 5.25 -5.55
638.00 288.00 0.00 5.25 -5.55
639.00 288.00 0.00 5.25 -5.55
640.00 288.00 0.00 5.25 -5.55
641.00 288.00 0.00 5.25 -5.55
642.00 288.00 0.00 5.25 -5.55
643.00 288.00 0.00 5.25 -5.55
644.00 288.00 0.00 5.25 -5.55
645.00 288.00 0.00 5.25 -5.55
646.00 288.00 0.00 5.25 -5.55
647.00 288.00 0.00 5.25 -5.55
648.00 288.00 0.00 5.25 -5.55
649.00 288.00 0.00 5.25 -5.55
650.00 288.00 0.00 5.25 -5.55
651.00 288.00 0.00 5.25 -5.55
652.00 288.00 0.00 5.25 -5.55
653.00 288.00 0.00 5.25 -5.55
654.00 288.00 0.00 5.25 -5.55
655.00 288.00 0.00 5.25 -5.55
656.00 288.00 0.00 5.25 -5.55
657.00 288.00 0.00 5.25 -5.55
658.00 288.00 0.00 5.25 -5.55
659.00 288.00 0.00 5.25 -5.55
660.00 288.00 0.00 5.25 -5.55
661.00 288.00 0.00 5.25 -5.55
662.00 288.00 0.00 5.25 -5.55
663.00 288.00 0.00 5.25 -5.55
664.00 288.00 0.00 5.25 -5.55
665.00 288.00 0.00 5.25 -5.55
666.00 288.00 0.00 5.25 -5.55
667.00 288.00 0.00 5.25 -5.55
668.00 288.00 0.00 5.25 -5.55
669.00 288.00 0.00 5.25 -5.55
670.00 288.00 0.00 5.25 -5.55
671.00 288.00 0.00 5.25 -5.55
672.00 288.00 0.00 5.25 -5.55
673.00 288.00 0.00 5.25 -5.55
674.00 288.00 0.00 5.25 -5.55
675.00 288.00 0.00 5.25 -5.55
676.00 288.00 0.00 5.25 -5.55
677.00 288.00 0.00 5.25 -5.55
678.00 288.00 0.00 5.25 -5.55
679.00 288.00 0.00 5.25 -5.55
680.00 288.00 0.00 5.25 -5.55
681.00 288.00 0.00 5.25 -5.55
682.00 288.00 0.00 5.25 -5.55
683.00 288.00 0.00 5.25 -5.55
684.00 288.00 0.00 5.25 -5.55
685.00 288.00 0.00 5.25 -5.55
686.00 288.00 0.00 5.25 -5.55
687.00 288.00 0.00 5.25 -5.55
688.00 288.00 0.00 5.25 -5.55
689.00 288.00 0.00 5.25 -5.55
690.00 288.00 0.00 5.25 -5.55
691.00 288.00 0.00 5.25 -5.55
692.00 288.00 0.00 5.25 -5.55
693.00 288.00 0.00 5.25 -5.55
694.00 288.00 0.00 5.25 -5.55
695.00 288.00 0.00 5.25 -5.55
696.00 288.00 0.00 5.25 -5.55
697.00 288.00 0.00 5.25 -5.55
698.00 288.00 0.00 5.25 -5.55
699.00 288.00 0.00 5.25 -5.55
700.00 288.00 0.00 5.25 -5.55
701.00 288.00 0.00 5.25 -5.55
702.00 288.00 0.00 5.25 -5.55
703.00 288.00 0.00 5.25 -5.55
704.00 288.00 0.00 5.25 -5.55
705.00 288.00 0.00 5.25 -5.55
706.00 288.00 0.00 5.25 -5.55
707.00 288.00 0.00 5.25 -5.55
708.00 288.00 0.00 5.25 -5.55
709.00 288.00 0.00 5.25 -5.55
710.00 288.00 0.00 5.25 -5.55
711.00 288.00 0.00 5.25 -5.55
712.00 288.00 0.00 5.25 -5.55
713.00 288.00 0.00 5.25 -5.55
714.00 288.00 0.00 5.25 -5.55
715.00 288.00 0.00 5.25 -5.55
716.00 288.00 0.00 5.25 -5.55
717.00 288.00 0.00 5.25 -5.55
718.00 288.00 0.00 5.25 -5.55
719.00 288.00 0.00 5.25 -5.55
720.00 288.00 0.00 5.25 -5.55
721.00 288.00 0.00 5.25 -5.55
722.00 288.00 0.00 5.25 -5.55
723.00 288.00 0.00 5.25 -5.55
724.00 288.00 0.00 5.25 -5.55
725.00 288.00 0.00 5.25 -5.55
726.00 288.00 0.00 5.25 -5.55
727.00 288.00 0.00 5.25 -5.55
728.00 288.00 0.00 5.25 -5.55
729.00 288.00 0.00 5.25 -5.55
730.00 288.00 0.00 5.25 -5.55
731.00 288.00 0.00 5.25 -5.55
732.00 288.00 0.00 5.25 -5.55
733.00 288.00 0.00 5.25 -5.55
734.00 288.00 0.00 5.25 -5.55
735.00 288.00 0.00 5.25 -5.55
736.00 288.00 0.00 5.25 -5.55
737.00 288.00 0.00 5.25 -5.55
738.00 288.00 0.00 5.25 -5.55
739.00 288.00 0.00 5.25 -5.55
740.00 288.00 0.00 5.25 -5.55
741.00 288.00 0.00 5.25 -5.55
742.00 288.00 0.00 5.25 -5.55
743.00 288.00 0.00 5.25 -5.55
744.00 288.00 0.00 5.25 -5.55
745.00 288.00 0.00 5.25 -5.55
746.00 288.00 0.00 5.25 -5.55
747.00 288.00 0.00 5.25 -5.55
748.00 288.00 0.00 5.25 -5.55
749.00 288.00 0.00 5.25 -5.55
750.00 288.00 0.00 5.25 -5.55
751.00 288.00 0.00 5.25 -5.55
752.00 288.00 0.00 5.25 -5.55
753.00 288.00 0.00 5.25 -5.55
754.00 288.00 0.00 5.25 -5.55
755.00 288.00 0.00 5.25 -5.55
756.00 288.00 0.00 5.25 -5.55
757.00 288.00 0.00 5.25 -5.55
758.00 288.00 0.00 5.25 -5.55
759.00 288.00 0.00 5.25 -5.55
760.00 288.00 0.00 5.25 -5.55
761.00 288.00 0.00 5.25 -5.55
762.00 288.00 0.00 5.25 -5.55
763.00 288.00 0.00 5.25 -5.55
764.00 288.00 0.00 5.25 -5.55
765.00 288.00 0.00 5.25 -5.55
766.00 288.00 0.00 5.25 -5.55
767.00 288.00 0.00 5.25 -5.55
768.00 288.00 0.00 5.25 -5.55
769.00 288.00 0.00 5.25 -5.55
770.00 288.00 0.00 5.25 -5.55
771.00 288.00 0.00 5.25 -5.55
772.00 288.00 0.00 5.25 -5.55
773.00 288.00 0.00 5.25 -5.55
774.00 288.00 0.00 5.25 -5.55
775.00 288.00 0.00 5.25 -5.55
776.00 288.00 0.00 5.25 -5.55
777.00 288.00 0.00 5.25 -5.55
778.00 288.00 0.00 5.25 -5.55
779.00 288.00 0.00 5.25 -5.55
780.00 288.00 0.00 5.25 -5.55
781.00 288.00 0.00 5.25 -5.55
782.00 288.00 0.00 5.25 -5.55
783.00 288.00 0.00 5.25 -5.55
784.00 288.00 0.00 5.25 -5.55
785.00 288.00 0.00 5.25 -5.55
786.00 288.00 0.00 5.25 -5.55
787.00 288.00 0.00 5.25 -5.55
788.00 288.00 0.00 5.25 -5.55
789.00 288.00 0.00 5.25 -5.55
790.00 288.00 0.00 5.25 -5.55
791.00 288.00 0.00 5.25 -5.55
792.00 288.00 0.00 5.25 -5.55
793.00 288.00 0.00 5.25 -5.55
794.00 288.00 0.00 5.25 -5.55
795.00 288.00 0.00 5.25 -5.55
796.00 288.00 0.00 5.25 -5.55
797.00 288.00 0.00 5.25 -5.55
798.00 288.00 0.00 5.25 -5.55
799.00 288.00 0.00 5.25 -5.55
800.00 288.00 0.00 5.25 -5.55
801.00 288.00 0.00 5.25 -5.55
802.00 288.00 0.00 5.25 -5.55
803.00 288.00 0.00 5.25 -5.55
804.00 288.00 0.00 5.25 -5.55
805.00 288.00 0.00 5.25 -5.55
806.00 288.00 0.00 5.25 -5.55
807.00 288.00 0.00 5.25 -5.55
808.00 288.00 0.00 5.25 -5.55
809.00 288.00 0.00 5.25 -5.55
810.00 288.00 0.00 5.25 -5.55
811.00 288.00 0.00 5.25 -5.55
812.00 288.00 0.00 5.25 -5.55
813.00 288.00 0.00 5.25 -5.55
814.00 288.00 0.00 5.25 -5.55
815.00 288.00 0.00 5.25 -5.55
816.00 288.00 0.00 5.25 -5.55
817.00 288.00 0.00 5.25 -5.55
818.00 288.00 0.00 5.25 -5.55
819.00 288.00 0.00 5.25 -5.55
820.00 288.00 0.00 5.25 -5.55
821.00 288.00 0.00 5.25 -5.55
822.00 288.00 0.00 5.25 -5.55
823.00 288.00 0.00 5.25 -5.55
824.00 288.00 0.00 5.25 -5.55
825.00 288.00 0.00 5.25 -5.55
826.00 288.00 0.00 5.25 -5.55
827.00 288.00 0.00 5.25 -5.55
828.00 288.00 0.00 5.25 -5.55
829.00 288.00 0.00 5.25 -5.55
830.00 288.00 0.00 5.25 -5.55
831.00 288.00 0.00 5.25 -5.55
