1000.00 288.00 00.00
0.00 288.00 0.00 4.38 -4.02
1.00 288.00 0.00 4.38 -4.02
2.00 288.00 0.00 4.38 -4.02
3.00 288.00 0.00 4.38 -4.02
4.00 288.00 0.00 4.38 -4.02
5.00 288.00 0.00 4.38 -4.02
6.00 288.00 0.00 4.38 -4.02
7.00 288.00 0.00 4.38 -4.02
8.00 288.00 0.00 4.38 -4.02
9.00 288.00 0.00 4.38 -4.02
10.00 288.00 0.00 4.38 -4.02
11.00 288.00 0.00 4.38 -4.02
12.00 288.00 0.00 4.38 -4.02
13.00 288.00 0.00 4.38 -4.02
14.00 288.00 0.00 4.38 -4.02
15.00 288.00 0.00 4.38 -4.02
16.00 288.00 0.00 4.38 -4.02
17.00 288.00 0.00 4.38 -4.02
18.00 288.00 0.00 4.38 -4.02
19.00 288.00 0.00 4.38 -4.02
20.00 288.00 0.00 4.38 -4.02
21.00 288.00 0.00 4.38 -4.02
22.00 288.00 0.00 4.38 -4.02
23.00 288.00 0.00 4.38 -4.02
24.00 288.00 0.00 4.38 -4.02
25.00 288.00 0.00 4.38 -4.02
26.00 288.00 0.00 4.38 -4.02
27.00 288.00 0.00 4.38 -4.02
28.00 288.00 0.00 4.38 -4.02
29.00 288.00 0.00 4.38 -4.02
30.00 288.00 0.00 4.38 -4.02
31.00 288.00 0.00 4.38 -4.02
32.00 288.00 0.00 4.38 -4.02
33.00 288.00 0.00 4.38 -4.02
34.00 288.00 0.00 4.38 -4.02
35.00 288.00 0.00 4.38 -4.02
36.00 288.00 0.00 4.38 -4.02
37.00 288.00 0.00 4.38 -4.02
38.00 288.00 0.00 4.38 -4.02
39.00 288.00 0.00 4.38 -4.02
40.00 288.00 0.00 4.38 -4.02
41.00 288.00 0.00 4.38 -4.02
42.00 288.00 0.00 4.38 -4.02
43.00 288.00 0.00 4.38 -4.02
44.00 288.00 0.00 4.38 -4.02
45.00 288.00 0.00 4.38 -4.02
46.00 288.00 0.00 4.38 -4.02
47.00 288.00 0.00 4.38 -4.02
48.00 288.00 0.00 4.38 -4.02
49.00 288.00 0.00 4.38 -4.02
50.00 288.00 0.00 4.38 -4.02
51.00 288.00 0.00 4.38 -4.02
52.00 288.00 0.00 4.38 -4.02
53.00 288.00 0.00 4.38 -4.02
54.00 288.00 0.00 4.38 -4.02
55.00 288.00 0.00 4.38 -4.02
56.00 288.00 0.00 4.38 -4.02
57.00 288.00 0.00 4.38 -4.02
58.00 288.00 0.00 4.38 -4.02
59.00 288.00 0.00 4.38 -4.02
60.00 288.00 0.00 4.38 -4.02
61.00 288.00 0.00 4.38 -4.02
62.00 288.00 0.00 4.38 -4.02
63.00 288.00 0.00 4.38 -4.02
64.00 288.00 0.00 4.38 -4.02
65.00 288.00 0.00 4.38 -4.02
66.00 288.00 0.00 4.38 -4.02
67.00 288.00 0.00 4.38 -4.02
68.00 288.00 0.00 4.38 -4.02
69.00 288.00 0.00 4.38 -4.02
70.00 288.00 0.00 4.38 -4.02
71.00 288.00 0.00 4.38 -4.02
72.00 288.00 0.00 4.38 -4.02
73.00 288.00 0.00 4.38 -4.02
74.00 288.00 0.00 4.38 -4.02
75.00 288.00 0.00 4.38 -4.02
76.00 288.00 0.00 4.38 -4.02
77.00 288.00 0.00 4.38 -4.02
78.00 288.00 0.00 4.38 -4.02
79.00 288.00 0.00 4.38 -4.02
80.00 288.00 0.00 4.38 -4.02
81.00 288.00 0.00 4.38 -4.02
82.00 288.00 0.00 4.38 -4.02
83.00 288.00 0.00 4.38 -4.02
84.00 288.00 0.00 4.38 -4.02
85.00 288.00 0.00 4.38 -4.02
86.00 288.00 0.00 4.38 -4.02
87.00 288.00 0.00 4.38 -4.02
88.00 288.00 0.00 4.38 -4.02
89.00 288.00 0.00 4.38 -4.02
90.00 288.00 0.00 4.38 -4.02
91.00 288.00 0.00 4.38 -4.02
92.00 288.00 0.00 4.38 -4.02
93.00 288.00 0.00 4.38 -4.02
94.00 288.00 0.00 4.38 -4.02
95.00 288.00 0.00 4.38 -4.02
96.00 288.00 0.00 4.38 -4.02
97.00 288.00 0.00 4.38 -4.02
98.00 288.00 0.00 4.38 -4.02
99.00 288.00 0.00 4.38 -4.02
100.00 288.00 0.00 4.38 -4.02
101.00 288.00 0.00 4.38 -4.02
102.00 288.00 0.00 4.38 -4.02
103.00 288.00 0.00 4.38 -4.02
104.00 288.00 0.00 4.38 -4.02
105.00 288.00 0.00 4.38 -4.02
106.00 288.00 0.00 4.38 -4.02
107.00 288.00 0.00 4.38 -4.02
108.00 288.00 0.00 4.38 -4.02
109.00 288.00 0.00 4.38 -4.02
110.00 288.00 0.00 4.38 -4.02
111.00 288.00 0.00 4.38 -4.02
112.00 288.00 0.00 4.38 -4.02
113.00 288.00 0.00 4.38 -4.02
114.00 288.00 0.00 4.38 -4.02
115.00 288.00 0.00 4.38 -4.01
116.00 288.00 0.00 4.38 -4.01
117.00 288.00 0.00 4.38 -4.01
118.00 288.00 0.00 4.38 -4.01
119.00 288.00 0.00 4.38 -4.01
120.00 288.00 0.00 4.38 -4.01
121.00 288.00 0.00 4.38 -4.01
122.00 288.00 0.00 4.38 -4.01
123.00 288.00 0.00 4.38 -4.01
124.00 288.00 0.00 4.38 -4.01
125.00 288.00 0.00 4.38 -4.01
126.00 288.00 0.00 4.38 -4.01
127.00 288.00 0.00 4.38 -4.01
128.00 288.00 0.00 4.38 -4.00
129.00 288.00 0.00 4.38 -4.00
130.00 288.00 0.00 4.39 -4.00
131.00 288.00 0.00 4.39 -4.00
132.00 288.00 0.00 4.39 -4.00
133.00 288.00 0.00 4.39 -3.99
134.00 288.00 0.00 4.39 -3.99
135.00 288.00 0.00 4.39 -3.99
136.00 288.00 0.00 4.39 -3.99
137.00 288.00 0.00 4.40 -3.99
138.00 288.00 0.00 4.40 -3.98
139.00 288.00 0.00 4.40 -3.98
140.00 288.00 0.00 4.40 -3.98
141.00 288.00 0.00 4.40 -3.97
142.00 288.00 0.00 4.41 -3.97
143.00 288.00 0.00 4.41 -3.97
144.00 288.00 0.00 4.41 -3.96
145.00 288.00 0.00 4.41 -3.96
146.00 288.00 0.00 4.42 -3.96
147.00 288.00 0.00 4.42 -3.95
148.00 288.00 0.00 4.42 -3.95
149.00 288.00 0.00 4.43 -3.95
150.00 288.00 0.00 4.43 -3.94
151.00 288.00 0.00 4.43 -3.94
152.00 288.00 0.00 4.43 -3.93
153.00 288.00 0.00 4.44 -3.93
154.00 288.00 0.00 4.44 -3.92
155.00 288.00 0.00 4.44 -3.92
156.00 288.00 0.00 4.45 -3.92
157.00 288.00 0.00 4.45 -3.91
158.00 288.00 0.00 4.45 -3.91
159.00 288.00 0.00 4.46 -3.90
160.00 288.00 0.00 4.46 -3.90
161.00 288.00 0.00 4.47 -3.89
162.00 288.00 0.00 4.47 -3.88
163.00 288.00 0.00 4.47 -3.88
164.00 288.00 0.00 4.48 -3.87
165.00 288.00 0.00 4.48 -3.87
166.00 288.00 0.00 4.49 -3.86
167.00 288.00 0.00 4.49 -3.86
168.00 288.00 0.00 4.50 -3.85
169.00 288.00 0.00 4.50 -3.84
170.00 288.00 0.00 4.50 -3.84
171.00 288.00 0.00 4.51 -3.83
172.00 288.00 0.00 4.51 -3.82
173.00 288.00 0.00 4.52 -3.82
174.00 288.00 0.00 4.52 -3.81
175.00 288.00 0.00 4.53 -3.80
176.00 288.00 0.00 4.53 -3.80
177.00 288.00 0.00 4.54 -3.79
178.00 288.00 0.00 4.54 -3.78
179.00 288.00 0.00 4.55 -3.78
180.00 288.00 0.00 4.56 -3.77
181.00 288.00 0.00 4.56 -3.76
182.00 288.00 0.00 4.57 -3.75
183.00 288.00 0.00 4.57 -3.74
184.00 288.00 0.00 4.58 -3.74
185.00 288.00 0.00 4.58 -3.73
186.00 288.00 0.00 4.59 -3.72
187.00 288.00 0.00 4.60 -3.71
188.00 288.00 0.00 4.60 -3.70
189.00 288.00 0.00 4.61 -3.69
190.00 288.00 0.00 4.61 -3.69
191.00 288.00 0.00 4.62 -3.68
192.00 288.00 0.00 4.63 -3.67
193.00 288.00 0.00 4.63 -3.66
194.00 288.00 0.00 4.64 -3.65
195.00 288.00 0.00 4.65 -3.64
196.00 288.00 0.00 4.65 -3.63
197.00 288.00 0.00 4.66 -3.62
198.00 288.00 0.00 4.67 -3.61
199.00 288.00 0.00 4.67 -3.60
200.00 288.00 0.00 4.68 -3.59
201.00 288.00 0.00 4.69 -3.58
202.00 288.00 0.00 4.70 -3.57
203.00 288.00 0.00 4.70 -3.56
204.00 288.00 0.00 4.71 -3.55
205.00 288.00 0.00 4.72 -3.54
206.00 288.00 0.00 4.73 -3.53
207.00 288.00 0.00 4.73 -3.52
208.00 288.00 0.00 4.74 -3.51
209.00 288.00 0.00 4.75 -3.49
210.00 288.00 0.00 4.76 -3.48
211.00 288.00 0.00 4.77 -3.47
212.00 288.00 0.00 4.77 -3.46
213.00 288.00 0.00 4.78 -3.45
214.00 288.00 0.00 4.79 -3.44
215.00 288.00 0.00 4.80 -3.43
216.00 288.00 0.00 4.81 -3.41
217.00 288.00 0.00 4.82 -3.40
218.00 288.00 0.00 4.82 -3.39
219.00 288.00 0.00 4.83 -3.38
220.00 288.00 0.00 4.84 -3.36
221.00 288.00 0.00 4.85 -3.35
222.00 288.00 0.00 4.86 -3.34
223.00 288.00 0.00 4.87 -3.32
224.00 288.00 0.00 4.88 -3.31
225.00 288.00 0.00 4.89 -3.30
226.00 288.00 0.00 4.90 -3.28
227.00 288.00 0.00 4.91 -3.27
228.00 288.00 0.00 4.92 -3.26
229.00 288.00 0.00 4.93 -3.24
230.00 288.00 0.00 4.93 -3.23
231.00 288.00 0.00 4.94 -3.22
232.00 288.00 0.00 4.95 -3.20
233.00 288.00 0.00 4.96 -3.19
234.00 288.00 0.00 4.97 -3.17
235.00 288.00 0.00 4.98 -3.16
236.00 288.00 0.00 4.99 -3.14
237.00 288.00 0.00 5.00 -3.13
238.00 288.00 0.00 5.01 -3.11
239.00 288.00 0.00 5.03 -3.10
240.00 288.00 0.00 5.04 -3.08
241.00 288.00 0.00 5.05 -3.07
242.00 288.00 0.00 5.06 -3.05
243.00 288.00 0.00 5.07 -3.03
244.00 288.00 0.00 5.08 -3.02
245.00 288.00 0.00 5.09 -3.00
246.00 288.00 0.00 5.10 -2.99
247.00 288.00 0.00 5.11 -2.97
248.00 288.00 0.00 5.12 -2.95
249.00 288.00 0.00 5.13 -2.94
250.00 288.00 0.00 5.15 -2.92
251.00 288.00 0.00 5.16 -2.90
252.00 288.00 0.00 5.17 -2.89
253.00 288.00 0.00 5.18 -2.87
254.00 288.00 0.00 5.19 -2.85
255.00 288.00 0.00 5.20 -2.83
256.00 288.00 0.00 5.21 -2.82
257.00 288.00 0.00 5.23 -2.80
258.00 288.00 0.00 5.24 -2.78
259.00 288.00 0.00 5.25 -2.76
260.00 288.00 0.00 5.26 -2.74
261.00 288.00 0.00 5.28 -2.73
262.00 288.00 0.00 5.29 -2.71
263.00 288.00 0.00 5.30 -2.69
264.00 288.00 0.00 5.31 -2.67
265.00 288.00 0.00 5.33 -2.65
266.00 288.00 0.00 5.34 -2.63
267.00 288.00 0.00 5.35 -2.61
268.00 288.00 0.00 5.36 -2.59
269.00 288.00 0.00 5.38 -2.57
270.00 288.00 0.00 5.39 -2.55
271.00 288.00 0.00 5.40 -2.53
272.00 288.00 0.00 5.42 -2.51
273.00 288.00 0.00 5.43 -2.49
274.00 288.00 0.00 5.44 -2.47
275.00 288.00 0.00 5.46 -2.45
276.00 288.00 0.00 5.47 -2.43
277.00 288.00 0.00 5.48 -2.41
278.00 288.00 0.00 5.50 -2.39
279.00 288.00 0.00 5.51 -2.37
280.00 288.00 0.00 5.52 -2.35
281.00 288.00 0.00 5.54 -2.33
282.00 288.00 0.00 5.55 -2.30
283.00 288.00 0.00 5.57 -2.28
284.00 288.00 0.00 5.58 -2.26
285.00 288.00 0.00 5.59 -2.24
286.00 288.00 0.00 5.61 -2.22
287.00 288.00 0.00 5.62 -2.19
288.00 288.00 0.00 5.64 -2.17
289.00 288.00 0.00 5.65 -2.15
290.00 288.00 0.00 5.67 -2.13
291.00 288.00 0.00 5.68 -2.10
292.00 288.00 0.00 5.70 -2.08
293.00 288.00 0.00 5.71 -2.06
294.00 288.00 0.00 5.73 -2.03
295.00 288.00 0.00 5.74 -2.01
296.00 288.00 0.00 5.76 -1.99
297.00 288.00 0.00 5.77 -1.96
298.00 288.00 0.00 5.79 -1.94
299.00 288.00 0.00 5.80 -1.92
300.00 288.00 0.00 5.82 -1.89
301.00 288.00 0.00 5.83 -1.87
302.00 288.00 0.00 5.85 -1.84
303.00 288.00 0.00 5.86 -1.82
304.00 288.00 0.00 5.88 -1.80
305.00 288.00 0.00 5.89 -1.77
306.00 288.00 0.00 5.91 -1.75
307.00 288.00 0.00 5.92 -1.73
308.00 288.00 0.00 5.94 -1.70
309.00 288.00 0.00 5.95 -1.68
310.00 288.00 0.00 5.97 -1.65
311.00 288.00 0.00 5.98 -1.63
312.00 288.00 0.00 6.00 -1.61
313.00 288.00 0.00 6.01 -1.58
314.00 288.00 0.00 6.03 -1.56
315.00 288.00 0.00 6.04 -1.53
316.00 288.00 0.00 6.06 -1.51
317.00 288.00 0.00 6.07 -1.49
318.00 288.00 0.00 6.09 -1.46
319.00 288.00 0.00 6.10 -1.44
320.00 288.00 0.00 6.12 -1.41
321.00 288.00 0.00 6.13 -1.39
322.00 288.00 0.00 6.15 -1.37
323.00 288.00 0.00 6.16 -1.34
324.00 288.00 0.00 6.18 -1.32
325.00 288.00 0.00 6.19 -1.29
326.00 288.00 0.00 6.21 -1.27
327.00 288.00 0.00 6.22 -1.25
328.00 288.00 0.00 6.24 -1.22
329.00 288.00 0.00 6.25 -1.20
330.00 288.00 0.00 6.27 -1.17
331.00 288.00 0.00 6.28 -1.15
332.00 288.00 0.00 6.30 -1.12
333.00 288.00 0.00 6.31 -1.10
334.00 288.00 0.00 6.33 -1.08
335.00 288.00 0.00 6.34 -1.05
336.00 288.00 0.00 6.36 -1.03
337.00 288.00 0.00 6.37 -1.00
338.00 288.00 0.00 6.39 -0.98
339.00 288.00 0.00 6.40 -0.95
340.00 288.00 0.00 6.42 -0.93
341.00 288.00 0.00 6.43 -0.91
342.00 288.00 0.00 6.45 -0.88
343.00 288.00 0.00 6.46 -0.86
344.00 288.00 0.00 6.48 -0.83
345.00 288.00 0.00 6.49 -0.81
346.00 288.00 0.00 6.51 -0.78
347.00 288.00 0.00 6.53 -0.76
348.00 288.00 0.00 6.54 -0.74
349.00 288.00 0.00 6.56 -0.71
350.00 288.00 0.00 6.57 -0.69
351.00 288.00 0.00 6.59 -0.66
352.00 288.00 0.00 6.60 -0.64
353.00 288.00 0.00 6.62 -0.61
354.00 288.00 0.00 6.63 -0.59
355.00 288.00 0.00 6.65 -0.56
356.00 288.00 0.00 6.66 -0.54
357.00 288.00 0.00 6.68 -0.52
358.00 288.00 0.00 6.69 -0.49
359.00 288.00 0.00 6.71 -0.47
360.00 288.00 0.00 6.72 -0.44
361.00 288.00 0.00 6.74 -0.42
362.00 288.00 0.00 6.75 -0.39
363.00 288.00 0.00 6.77 -0.37
364.00 288.00 0.00 6.78 -0.34
365.00 288.00 0.00 6.80 -0.32
366.00 288.00 0.00 6.81 -0.29
367.00 288.00 0.00 6.83 -0.27
368.00 288.00 0.00 6.84 -0.25
369.00 288.00 0.00 6.86 -0.22
370.00 288.00 0.00 6.87 -0.20
371.00 288.00 0.00 6.89 -0.17
372.00 288.00 0.00 6.90 -0.15
373.00 288.00 0.00 6.92 -0.12
374.00 288.00 0.00 6.93 -0.10
375.00 288.00 0.00 6.95 -0.07
376.00 288.00 0.00 6.96 -0.05
377.00 288.00 0.00 6.98 -0.02
378.00 288.00 0.00 6.99 0.00
379.00 288.00 0.00 7.01 0.02
380.00 288.00 0.00 7.02 0.05
381.00 288.00 0.00 7.04 0.07
382.00 288.00 0.00 7.05 0.10
383.00 288.00 0.00 7.07 0.12
384.00 288.00 0.00 7.08 0.15
385.00 288.00 0.00 7.10 0.17
386.00 288.00 0.00 7.11 0.20
387.00 288.00 0.00 7.13 0.22
388.00 288.00 0.00 7.14 0.25
389.00 288.00 0.00 7.16 0.27
390.00 288.00 0.00 7.17 0.29
391.00 288.00 0.00 7.19 0.32
392.00 288.00 0.00 7.20 0.34
393.00 288.00 0.00 7.22 0.37
394.00 288.00 0.00 7.23 0.39
395.00 288.00 0.00 7.25 0.42
396.00 288.00 0.00 7.26 0.44
397.00 288.00 0.00 7.28 0.47
398.00 288.00 0.00 7.29 0.49
399.00 288.00 0.00 7.31 0.52
400.00 288.00 0.00 7.32 0.54
401.00 288.00 0.00 7.34 0.56
402.00 288.00 0.00 7.35 0.59
403.00 288.00 0.00 7.37 0.61
404.00 288.00 0.00 7.38 0.64
405.00 288.00 0.00 7.40 0.66
406.00 288.00 0.00 7.41 0.69
407.00 288.00 0.00 7.43 0.71
408.00 288.00 0.00 7.44 0.74
409.00 288.00 0.00 7.46 0.76
410.00 288.00 0.00 7.47 0.78
411.00 288.00 0.00 7.49 0.81
412.00 288.00 0.00 7.51 0.83
413.00 288.00 0.00 7.52 0.86
414.00 288.00 0.00 7.54 0.88
415.00 288.00 0.00 7.55 0.91
416.00 288.00 0.00 7.57 0.93
417.00 288.00 0.00 7.58 0.95
418.00 288.00 0.00 7.60 0.98
419.00 288.00 0.00 7.61 1.00
420.00 288.00 0.00 7.63 1.03
421.00 288.00 0.00 7.64 1.05
422.00 288.00 0.00 7.66 1.08
423.00 288.00 0.00 7.67 1.10
424.00 288.00 0.00 7.69 1.12
425.00 288.00 0.00 7.70 1.15
426.00 288.00 0.00 7.72 1.17
427.00 288.00 0.00 7.73 1.20
428.00 288.00 0.00 7.75 1.22
429.00 288.00 0.00 7.76 1.25
430.00 288.00 0.00 7.78 1.27
431.00 288.00 0.00 7.79 1.29
432.00 288.00 0.00 7.81 1.32
433.00 288.00 0.00 7.82 1.34
434.00 288.00 0.00 7.84 1.37
435.00 288.00 0.00 7.85 1.39
436.00 288.00 0.00 7.87 1.41
437.00 288.00 0.00 7.88 1.44
438.00 288.00 0.00 7.90 1.46
439.00 288.00 0.00 7.91 1.49
440.00 288.00 0.00 7.93 1.51
441.00 288.00 0.00 7.94 1.53
442.00 288.00 0.00 7.96 1.56
443.00 288.00 0.00 7.97 1.58
444.00 288.00 0.00 7.99 1.61
445.00 288.00 0.00 8.00 1.63
446.00 288.00 0.00 8.02 1.65
447.00 288.00 0.00 8.03 1.68
448.00 288.00 0.00 8.05 1.70
449.00 288.00 0.00 8.06 1.73
450.00 288.00 0.00 8.08 1.75
451.00 288.00 0.00 8.09 1.77
452.00 288.00 0.00 8.11 1.80
453.00 288.00 0.00 8.12 1.82
454.00 288.00 0.00 8.14 1.84
455.00 288.00 0.00 8.15 1.87
456.00 288.00 0.00 8.17 1.89
457.00 288.00 0.00 8.18 1.92
458.00 288.00 0.00 8.20 1.94
459.00 288.00 0.00 8.21 1.96
460.00 288.00 0.00 8.23 1.99
461.00 288.00 0.00 8.24 2.01
462.00 288.00 0.00 8.26 2.03
463.00 288.00 0.00 8.27 2.06
464.00 288.00 0.00 8.29 2.08
465.00 288.00 0.00 8.30 2.10
466.00 288.00 0.00 8.32 2.13
467.00 288.00 0.00 8.33 2.15
468.00 288.00 0.00 8.35 2.17
469.00 288.00 0.00 8.36 2.19
470.00 288.00 0.00 8.38 2.22
471.00 288.00 0.00 8.39 2.24
472.00 288.00 0.00 8.41 2.26
473.00 288.00 0.00 8.42 2.28
474.00 288.00 0.00 8.43 2.30
475.00 288.00 0.00 8.45 2.33
476.00 288.00 0.00 8.46 2.35
477.00 288.00 0.00 8.48 2.37
478.00 288.00 0.00 8.49 2.39
479.00 288.00 0.00 8.50 2.41
480.00 288.00 0.00 8.52 2.43
481.00 288.00 0.00 8.53 2.45
482.00 288.00 0.00 8.54 2.47
483.00 288.00 0.00 8.56 2.49
484.00 288.00 0.00 8.57 2.51
485.00 288.00 0.00 8.58 2.53
486.00 288.00 0.00 8.60 2.55
487.00 288.00 0.00 8.61 2.57
488.00 288.00 0.00 8.62 2.59
489.00 288.00 0.00 8.64 2.61
490.00 288.00 0.00 8.65 2.63
491.00 288.00 0.00 8.66 2.65
492.00 288.00 0.00 8.67 2.67
493.00 288.00 0.00 8.69 2.69
494.00 288.00 0.00 8.70 2.71
495.00 288.00 0.00 8.71 2.73
496.00 288.00 0.00 8.72 2.74
497.00 288.00 0.00 8.74 2.76
498.00 288.00 0.00 8.75 2.78
499.00 288.00 0.00 8.76 2.80
500.00 288.00 0.00 8.77 2.82
501.00 288.00 0.00 8.79 2.83
502.00 288.00 0.00 8.80 2.85
503.00 288.00 0.00 8.81 2.87
504.00 288.00 0.00 8.82 2.89
505.00 288.00 0.00 8.83 2.90
506.00 288.00 0.00 8.84 2.92
507.00 288.00 0.00 8.85 2.94
508.00 288.00 0.00 8.87 2.95
509.00 288.00 0.00 8.88 2.97
510.00 288.00 0.00 8.89 2.99
511.00 288.00 0.00 8.90 3.00
512.00 288.00 0.00 8.91 3.02
513.00 288.00 0.00 8.92 3.03
514.00 288.00 0.00 8.93 3.05
515.00 288.00 0.00 8.94 3.07
516.00 288.00 0.00 8.95 3.08
517.00 288.00 0.00 8.96 3.10
518.00 288.00 0.00 8.97 3.11
519.00 288.00 0.00 8.99 3.13
520.00 288.00 0.00 9.00 3.14
521.00 288.00 0.00 9.01 3.16
522.00 288.00 0.00 9.02 3.17
523.00 288.00 0.00 9.03 3.19
524.00 288.00 0.00 9.04 3.20
525.00 288.00 0.00 9.05 3.22
526.00 288.00 0.00 9.06 3.23
527.00 288.00 0.00 9.07 3.24
528.00 288.00 0.00 9.07 3.26
529.00 288.00 0.00 9.08 3.27
530.00 288.00 0.00 9.09 3.28
531.00 288.00 0.00 9.10 3.30
532.00 288.00 0.00 9.11 3.31
533.00 288.00 0.00 9.12 3.32
534.00 288.00 0.00 9.13 3.34
535.00 288.00 0.00 9.14 3.35
536.00 288.00 0.00 9.15 3.36
537.00 288.00 0.00 9.16 3.38
538.00 288.00 0.00 9.17 3.39
539.00 288.00 0.00 9.18 3.40
540.00 288.00 0.00 9.18 3.41
541.00 288.00 0.00 9.19 3.43
542.00 288.00 0.00 9.20 3.44
543.00 288.00 0.00 9.21 3.45
544.00 288.00 0.00 9.22 3.46
545.00 288.00 0.00 9.23 3.47
546.00 288.00 0.00 9.23 3.48
547.00 288.00 0.00 9.24 3.49
548.00 288.00 0.00 9.25 3.51
549.00 288.00 0.00 9.26 3.52
550.00 288.00 0.00 9.27 3.53
551.00 288.00 0.00 9.27 3.54
552.00 288.00 0.00 9.28 3.55
553.00 288.00 0.00 9.29 3.56
554.00 288.00 0.00 9.30 3.57
555.00 288.00 0.00 9.30 3.58
556.00 288.00 0.00 9.31 3.59
557.00 288.00 0.00 9.32 3.60
558.00 288.00 0.00 9.33 3.61
559.00 288.00 0.00 9.33 3.62
560.00 288.00 0.00 9.34 3.63
561.00 288.00 0.00 9.35 3.64
562.00 288.00 0.00 9.35 3.65
563.00 288.00 0.00 9.36 3.66
564.00 288.00 0.00 9.37 3.67
565.00 288.00 0.00 9.37 3.68
566.00 288.00 0.00 9.38 3.69
567.00 288.00 0.00 9.39 3.69
568.00 288.00 0.00 9.39 3.70
569.00 288.00 0.00 9.40 3.71
570.00 288.00 0.00 9.40 3.72
571.00 288.00 0.00 9.41 3.73
572.00 288.00 0.00 9.42 3.74
573.00 288.00 0.00 9.42 3.74
574.00 288.00 0.00 9.43 3.75
575.00 288.00 0.00 9.43 3.76
576.00 288.00 0.00 9.44 3.77
577.00 288.00 0.00 9.44 3.78
578.00 288.00 0.00 9.45 3.78
579.00 288.00 0.00 9.46 3.79
580.00 288.00 0.00 9.46 3.80
581.00 288.00 0.00 9.47 3.80
582.00 288.00 0.00 9.47 3.81
583.00 288.00 0.00 9.48 3.82
584.00 288.00 0.00 9.48 3.82
585.00 288.00 0.00 9.49 3.83
586.00 288.00 0.00 9.49 3.84
587.00 288.00 0.00 9.50 3.84
588.00 288.00 0.00 9.50 3.85
589.00 288.00 0.00 9.50 3.86
590.00 288.00 0.00 9.51 3.86
591.00 288.00 0.00 9.51 3.87
592.00 288.00 0.00 9.52 3.87
593.00 288.00 0.00 9.52 3.88
594.00 288.00 0.00 9.53 3.88
595.00 288.00 0.00 9.53 3.89
596.00 288.00 0.00 9.53 3.90
597.00 288.00 0.00 9.54 3.90
598.00 288.00 0.00 9.54 3.91
599.00 288.00 0.00 9.55 3.91
600.00 288.00 0.00 9.55 3.92
601.00 288.00 0.00 9.55 3.92
602.00 288.00 0.00 9.56 3.92
603.00 288.00 0.00 9.56 3.93
604.00 288.00 0.00 9.56 3.93
605.00 288.00 0.00 9.57 3.94
606.00 288.00 0.00 9.57 3.94
607.00 288.00 0.00 9.57 3.95
608.00 288.00 0.00 9.57 3.95
609.00 288.00 0.00 9.58 3.95
610.00 288.00 0.00 9.58 3.96
611.00 288.00 0.00 9.58 3.96
612.00 288.00 0.00 9.59 3.96
613.00 288.00 0.00 9.59 3.97
614.00 288.00 0.00 9.59 3.97
615.00 288.00 0.00 9.59 3.97
616.00 288.00 0.00 9.60 3.98
617.00 288.00 0.00 9.60 3.98
618.00 288.00 0.00 9.60 3.98
619.00 288.00 0.00 9.60 3.99
620.00 288.00 0.00 9.60 3.99
621.00 288.00 0.00 9.61 3.99
622.00 288.00 0.00 9.61 3.99
623.00 288.00 0.00 9.61 3.99
624.00 288.00 0.00 9.61 4.00
625.00 288.00 0.00 9.61 4.00
626.00 288.00 0.00 9.61 4.00
627.00 288.00 0.00 9.61 4.00
628.00 288.00 0.00 9.62 4.00
629.00 288.00 0.00 9.62 4.01
630.00 288.00 0.00 9.62 4.01
631.00 288.00 0.00 9.62 4.01
632.00 288.00 0.00 9.62 4.01
633.00 288.00 0.00 9.62 4.01
634.00 288.00 0.00 9.62 4.01
635.00 288.00 0.00 9.62 4.01
636.00 288.00 0.00 9.62 4.01
637.00 288.00 0.00 9.62 4.01
638.00 288.00 0.00 9.62 4.01
639.00 288.00 0.00 9.62 4.01
640.00 288.00 0.00 9.62 4.01
641.00 288.00 0.00 9.62 4.01
642.00 288.00 0.00 9.62 4.02
643.00 288.00 0.00 9.62 4.02
644.00 288.00 0.00 9.62 4.02
645.00 288.00 0.00 9.62 4.02
646.00 288.00 0.00 9.62 4.02
647.00 288.00 0.00 9.62 4.02
648.00 288.00 0.00 9.62 4.02
649.00 288.00 0.00 9.62 4.02
650.00 288.00 0.00 9.62 4.02
651.00 288.00 0.00 9.62 4.02
652.00 288.00 0.00 9.62 4.02
653.00 288.00 0.00 9.62 4.02
654.00 288.00 0.00 9.62 4.02
655.00 288.00 0.00 9.62 4.02
656.00 288.00 0.00 9.62 4.02
657.00 288.00 0.00 9.62 4.02
658.00 288.00 0.00 9.62 4.02
659.00 288.00 0.00 9.62 4.02
660.00 288.00 0.00 9.62 4.02
661.00 288.00 0.00 9.62 4.02
662.00 288.00 0.00 9.62 4.02
663.00 288.00 0.00 9.62 4.02
664.00 288.00 0.00 9.62 4.02
665.00 288.00 0.00 9.62 4.02
666.00 288.00 0.00 9.62 4.02
667.00 288.00 0.00 9.62 4.02
668.00 288.00 0.00 9.62 4.02
669.00 288.00 0.00 9.62 4.02
670.00 288.00 0.00 9.62 4.02
671.00 288.00 0.00 9.62 4.02
672.00 288.00 0.00 9.62 4.02
673.00 288.00 0.00 9.62 4.02
674.00 288.00 0.00 9.62 4.02
675.00 288.00 0.00 9.62 4.02
676.00 288.00 0.00 9.62 4.02
677.00 288.00 0.00 9.62 4.02
678.00 288.00 0.00 9.62 4.02
679.00 288.00 0.00 9.62 4.02
680.00 288.00 0.00 9.62 4.02
681.00 288.00 0.00 9.62 4.02
682.00 288.00 0.00 9.62 4.02
683.00 288.00 0.00 9.62 4.02
684.00 288.00 0.00 9.62 4.02
685.00 288.00 0.00 9.62 4.02
686.00 288.00 0.00 9.62 4.02
687.00 288.00 0.00 9.62 4.02
688.00 288.00 0.00 9.62 4.02
689.00 288.00 0.00 9.62 4.02
690.00 288.00 0.00 9.62 4.02
691.00 288.00 0.00 9.62 4.02
692.00 288.00 0.00 9.62 4.02
693.00 288.00 0.00 9.62 4.02
694.00 288.00 0.00 9.62 4.02
695.00 288.00 0.00 9.62 4.02
696.00 288.00 0.00 9.62 4.02
697.00 288.00 0.00 9.62 4.02
698.00 288.00 0.00 9.62 4.02
699.00 288.00 0.00 9.62 4.02
700.00 288.00 0.00 9.62 4.02
701.00 288.00 0.00 9.62 4.02
702.00 288.00 0.00 9.62 4.02
703.00 288.00 0.00 9.62 4.02
704.00 288.00 0.00 9.62 4.02
705.00 288.00 0.00 9.62 4.02
706.00 288.00 0.00 9.62 4.02
707.00 288.00 0.00 9.62 4.02
708.00 288.00 0.00 9.62 4.02
709.00 288.00 0.00 9.62 4.02
710.00 288.00 0.00 9.62 4.02
711.00 288.00 0.00 9.62 4.02
712.00 288.00 0.00 9.62 4.02
713.00 288.00 0.00 9.62 4.02
714.00 288.00 0.00 9.62 4.02
715.00 288.00 0.00 9.62 4.02
716.00 288.00 0.00 9.62 4.02
717.00 288.00 0.00 9.62 4.02
718.00 288.00 0.00 9.62 4.02
719.00 288.00 0.00 9.62 4.02
720.00 288.00 0.00 9.62 4.02
721.00 288.00 0.00 9.62 4.02
722.00 288.00 0.00 9.62 4.02
723.00 288.00 0.00 9.62 4.02
724.00 288.00 0.00 9.62 4.02
725.00 288.00 0.00 9.62 4.02
726.00 288.00 0.00 9.62 4.02
727.00 288.00 0.00 9.62 4.02
728.00 288.00 0.00 9.62 4.02
729.00 288.00 0.00 9.62 4.02
730.00 288.00 0.00 9.62 4.02
731.00 288.00 0.00 9.62 4.02
732.00 288.00 0.00 9.62 4.02
733.00 288.00 0.00 9.62 4.02
734.00 288.00 0.00 9.62 4.02
735.00 288.00 0.00 9.62 4.02
736.00 288.00 0.00 9.62 4.02
737.00 288.00 0.00 9.62 4.02
738.00 288.00 0.00 9.62 4.02
739.00 288.00 0.00 9.62 4.02
740.00 288.00 0.00 9.62 4.02
741.00 288.00 0.00 9.62 4.02
742.00 288.00 0.00 9.62 4.02
743.00 288.00 0.00 9.62 4.02
744.00 288.00 0.00 9.62 4.02
745.00 288.00 0.00 9.62 4.02
746.00 288.00 0.00 9.62 4.02
747.00 288.00 0.00 9.62 4.02
748.00 288.00 0.00 9.62 4.02
749.00 288.00 0.00 9.62 4.02
750.00 288.00 0.00 9.62 4.02
751.00 288.00 0.00 9.62 4.02
752.00 288.00 0.00 9.62 4.02
753.00 288.00 0.00 9.62 4.02
754.00 288.00 0.00 9.62 4.02
755.00 288.00 0.00 9.62 4.02
756.00 288.00 0.00 9.62 4.02
757.00 288.00 0.00 9.62 4.02
758.00 288.00 0.00 9.62 4.02
759.00 288.00 0.00 9.62 4.02
760.00 288.00 0.00 9.62 4.02
761.00 288.00 0.00 9.62 4.02
762.00 288.00 0.00 9.62 4.02
763.00 288.00 0.00 9.62 4.02
764.00 288.00 0.00 9.62 4.02
765.00 288.00 0.00 9.62 4.02
766.00 288.00 0.00 9.62 4.02
767.00 288.00 0.00 9.62 4.02
768.00 288.00 0.00 9.62 4.02
769.00 288.00 0.00 9.62 4.02
770.00 288.00 0.00 9.62 4.02
771.00 288.00 0.00 9.62 4.02
772.00 288.00 0.00 9.62 4.02
773.00 288.00 0.00 9.62 4.02
774.00 288.00 0.00 9.62 4.02
775.00 288.00 0.00 9.62 4.02
776.00 288.00 0.00 9.62 4.02
777.00 288.00 0.00 9.62 4.02
778.00 288.00 0.00 9.62 4.02
779.00 288.00 0.00 9.62 4.02
780.00 288.00 0.00 9.62 4.02
781.00 288.00 0.00 9.62 4.02
782.00 288.00 0.00 9.62 4.02
783.00 288.00 0.00 9.62 4.02
784.00 288.00 0.00 9.62 4.02
785.00 288.00 0.00 9.62 4.02
786.00 288.00 0.00 9.62 4.02
787.00 288.00 0.00 9.62 4.02
788.00 288.00 0.00 9.62 4.02
789.00 288.00 0.00 9.62 4.02
790.00 288.00 0.00 9.62 4.02
791.00 288.00 0.00 9.62 4.02
792.00 288.00 0.00 9.62 4.02
793.00 288.00 0.00 9.62 4.02
794.00 288.00 0.00 9.62 4.02
795.00 288.00 0.00 9.62 4.02
796.00 288.00 0.00 9.62 4.02
797.00 288.00 0.00 9.62 4.02
798.00 288.00 0.00 9.62 4.02
799.00 288.00 0.00 9.62 4.02
800.00 288.00 0.00 9.62 4.02
801.00 288.00 0.00 9.62 4.02
802.00 288.00 0.00 9.62 4.02
803.00 288.00 0.00 9.62 4.02
804.00 288.00 0.00 9.62 4.02
805.00 288.00 0.00 9.62 4.02
806.00 288.00 0.00 9.62 4.02
807.00 288.00 0.00 9.62 4.02
808.00 288.00 0.00 9.62 4.02
809.00 288.00 0.00 9.62 4.02
810.00 288.00 0.00 9.62 4.02
811.00 288.00 0.00 9.62 4.02
812.00 288.00 0.00 9.62 4.02
813.00 288.00 0.00 9.62 4.02
814.00 288.00 0.00 9.62 4.02
815.00 288.00 0.00 9.62 4.02
816.00 288.00 0.00 9.62 4.02
817.00 288.00 0.00 9.62 4.02
818.00 288.00 0.00 9.62 4.02
819.00 288.00 0.00 9.62 4.02
820.00 288.00 0.00 9.62 4.02
821.00 288.00 0.00 9.62 4.02
822.00 288.00 0.00 9.62 4.02
823.00 288.00 0.00 9.62 4.02
824.00 288.00 0.00 9.62 4.02
825.00 288.00 0.00 9.62 4.02
826.00 288.00 0.00 9.62 4.02
827.00 288.00 0.00 9.62 4.02
828.00 288.00 0.00 9.62 4.02
829.00 288.00 0.00 9.62 4.02
830.00 288.00 0.00 9.62 4.02
831.00 288.00 0.00 9.62 4.02
