1000.00 288.00 00.00
0.00 288.00 0.00 4.52 -5.34
1.00 288.00 0.00 4.52 -5.34
2.00 288.00 0.00 4.52 -5.34
3.00 288.00 0.00 4.52 -5.34
4.00 288.00 0.00 4.52 -5.34
5.00 288.00 0.00 4.52 -5.34
6.00 288.00 0.00 4.52 -5.34
7.00 288.00 0.00 4.52 -5.34
8.00 288.00 0.00 4.52 -5.34
9.00 288.00 0.00 4.52 -5.34
10.00 288.00 0.00 4.52 -5.34
11.00 288.00 0.00 4.52 -5.34
12.00 288.00 0.00 4.52 -5.34
13.00 288.00 0.00 4.52 -5.34
14.00 288.00 0.00 4.52 -5.34
15.00 288.00 0.00 4.52 -5.34
16.00 288.00 0.00 4.52 -5.34
17.00 288.00 0.00 4.52 -5.34
18.00 288.00 0.00 4.52 -5.34
19.00 288.00 0.00 4.52 -5.34
20.00 288.00 0.00 4.52 -5.34
21.00 288.00 0.00 4.52 -5.34
22.00 288.00 0.00 4.52 -5.34
23.00 288.00 0.00 4.52 -5.34
24.00 288.00 0.00 4.52 -5.34
25.00 288.00 0.00 4.52 -5.34
26.00 288.00 0.00 4.52 -5.34
27.00 288.00 0.00 4.52 -5.34
28.00 288.00 0.00 4.52 -5.34
29.00 288.00 0.00 4.52 -5.34
30.00 288.00 0.00 4.52 -5.34
31.00 288.00 0.00 4.52 -5.34
32.00 288.00 0.00 4.52 -5.34
33.00 288.00 0.00 4.52 -5.34
34.00 288.00 0.00 4.52 -5.34
35.00 288.00 0.00 4.52 -5.34
36.00 288.00 0.00 4.52 -5.34
37.00 288.00 0.00 4.52 -5.34
38.00 288.00 0.00 4.52 -5.34
39.00 288.00 0.00 4.52 -5.34
40.00 288.00 0.00 4.52 -5.34
41.00 288.00 0.00 4.52 -5.34
42.00 288.00 0.00 4.52 -5.34
43.00 288.00 0.00 4.52 -5.34
44.00 288.00 0.00 4.52 -5.34
45.00 288.00 0.00 4.52 -5.34
46.00 288.00 0.00 4.52 -5.34
47.00 288.00 0.00 4.52 -5.34
48.00 288.00 0.00 4.52 -5.34
49.00 288.00 0.00 4.52 -5.33
50.00 288.00 0.00 4.52 -5.33
51.00 288.00 0.00 4.52 -5.33
52.00 288.00 0.00 4.52 -5.33
53.00 288.00 0.00 4.52 -5.33
54.00 288.00 0.00 4.52 -5.33
55.00 288.00 0.00 4.52 -5.33
56.00 288.00 0.00 4.52 -5.33
57.00 288.00 0.00 4.52 -5.33
58.00 288.00 0.00 4.52 -5.32
59.00 288.00 0.00 4.53 -5.32
60.00 288.00 0.00 4.53 -5.32
61.00 288.00 0.00 4.53 -5.32
62.00 288.00 0.00 4.53 -5.32
63.00 288.00 0.00 4.53 -5.31
64.00 288.00 0.00 4.53 -5.31
65.00 288.00 0.00 4.53 -5.31
66.00 288.00 0.00 4.53 -5.31
67.00 288.00 0.00 4.54 -5.31
68.00 288.00 0.00 4.54 -5.30
69.00 288.00 0.00 4.54 -5.30
70.00 288.00 0.00 4.54 -5.30
71.00 288.00 0.00 4.54 -5.29
72.00 288.00 0.00 4.54 -5.29
73.00 288.00 0.00 4.55 -5.29
74.00 288.00 0.00 4.55 -5.29
75.00 288.00 0.00 4.55 -5.28
76.00 288.00 0.00 4.55 -5.28
77.00 288.00 0.00 4.55 -5.28
78.00 288.00 0.00 4.56 -5.27
79.00 288.00 0.00 4.56 -5.27
80.00 288.00 0.00 4.56 -5.27
81.00 288.00 0.00 4.56 -5.26
82.00 288.00 0.00 4.56 -5.26
83.00 288.00 0.00 4.57 -5.25
84.00 288.00 0.00 4.57 -5.25
85.00 288.00 0.00 4.57 -5.25
86.00 288.00 0.00 4.57 -5.24
87.00 288.00 0.00 4.58 -5.24
88.00 288.00 0.00 4.58 -5.23
89.00 288.00 0.00 4.58 -5.23
90.00 288.00 0.00 4.58 -5.23
91.00 288.00 0.00 4.59 -5.22
92.00 288.00 0.00 4.59 -5.22
93.00 288.00 0.00 4.59 -5.21
94.00 288.00 0.00 4.60 -5.21
95.00 288.00 0.00 4.60 -5.20
96.00 288.00 0.00 4.60 -5.20
97.00 288.00 0.00 4.61 -5.19
98.00 288.00 0.00 4.61 -5.19
99.00 288.00 0.00 4.61 -5.18
100.00 288.00 0.00 4.61 -5.17
101.00 288.00 0.00 4.62 -5.17
102.00 288.00 0.00 4.62 -5.16
103.00 288.00 0.00 4.63 -5.16
104.00 288.00 0.00 4.63 -5.15
105.00 288.00 0.00 4.63 -5.15
106.00 288.00 0.00 4.64 -5.14
107.00 288.00 0.00 4.64 -5.13
108.00 288.00 0.00 4.64 -5.13
109.00 288.00 0.00 4.65 -5.12
110.00 288.00 0.00 4.65 -5.11
111.00 288.00 0.00 4.65 -5.11
112.00 288.00 0.00 4.66 -5.10
113.00 288.00 0.00 4.66 -5.09
114.00 288.00 0.00 4.67 -5.09
115.00 288.00 0.00 4.67 -5.08
116.00 288.00 0.00 4.68 -5.07
117.00 288.00 0.00 4.68 -5.07
118.00 288.00 0.00 4.68 -5.06
119.00 288.00 0.00 4.69 -5.05
120.00 288.00 0.00 4.69 -5.04
121.00 288.00 0.00 4.70 -5.04
122.00 288.00 0.00 4.70 -5.03
123.00 288.00 0.00 4.71 -5.02
124.00 288.00 0.00 4.71 -5.01
125.00 288.00 0.00 4.72 -5.00
126.00 288.00 0.00 4.72 -5.00
127.00 288.00 0.00 4.73 -4.99
128.00 288.00 0.00 4.73 -4.98
129.00 288.00 0.00 4.73 -4.97
130.00 288.00 0.00 4.74 -4.96
131.00 288.00 0.00 4.74 -4.95
132.00 288.00 0.00 4.75 -4.95
133.00 288.00 0.00 4.76 -4.94
134.00 288.00 0.00 4.76 -4.93
135.00 288.00 0.00 4.77 -4.92
136.00 288.00 0.00 4.77 -4.91
137.00 288.00 0.00 4.78 -4.90
138.00 288.00 0.00 4.78 -4.89
139.00 288.00 0.00 4.79 -4.88
140.00 288.00 0.00 4.79 -4.87
141.00 288.00 0.00 4.80 -4.86
142.00 288.00 0.00 4.80 -4.85
143.00 288.00 0.00 4.81 -4.84
144.00 288.00 0.00 4.82 -4.83
145.00 288.00 0.00 4.82 -4.82
146.00 288.00 0.00 4.83 -4.81
147.00 288.00 0.00 4.83 -4.80
148.00 288.00 0.00 4.84 -4.79
149.00 288.00 0.00 4.84 -4.78
150.00 288.00 0.00 4.85 -4.77
151.00 288.00 0.00 4.86 -4.76
152.00 288.00 0.00 4.86 -4.74
153.00 288.00 0.00 4.87 -4.73
154.00 288.00 0.00 4.88 -4.72
155.00 288.00 0.00 4.88 -4.71
156.00 288.00 0.00 4.89 -4.70
157.00 288.00 0.00 4.90 -4.69
158.00 288.00 0.00 4.90 -4.67
159.00 288.00 0.00 4.91 -4.66
160.00 288.00 0.00 4.91 -4.65
161.00 288.00 0.00 4.92 -4.64
162.00 288.00 0.00 4.93 -4.63
163.00 288.00 0.00 4.94 -4.61
164.00 288.00 0.00 4.94 -4.60
165.00 288.00 0.00 4.95 -4.59
166.00 288.00 0.00 4.96 -4.58
167.00 288.00 0.00 4.96 -4.56
168.00 288.00 0.00 4.97 -4.55
169.00 288.00 0.00 4.98 -4.54
170.00 288.00 0.00 4.98 -4.52
171.00 288.00 0.00 4.99 -4.51
172.00 288.00 0.00 5.00 -4.49
173.00 288.00 0.00 5.01 -4.48
174.00 288.00 0.00 5.01 -4.47
175.00 288.00 0.00 5.02 -4.45
176.00 288.00 0.00 5.03 -4.44
177.00 288.00 0.00 5.04 -4.42
178.00 288.00 0.00 5.04 -4.41
179.00 288.00 0.00 5.05 -4.39
180.00 288.00 0.00 5.06 -4.38
181.00 288.00 0.00 5.07 -4.37
182.00 288.00 0.00 5.08 -4.35
183.00 288.00 0.00 5.08 -4.33
184.00 288.00 0.00 5.09 -4.32
185.00 288.00 0.00 5.10 -4.30
186.00 288.00 0.00 5.11 -4.29
187.00 288.00 0.00 5.12 -4.27
188.00 288.00 0.00 5.12 -4.26
189.00 288.00 0.00 5.13 -4.24
190.00 288.00 0.00 5.14 -4.22
191.00 288.00 0.00 5.15 -4.21
192.00 288.00 0.00 5.16 -4.19
193.00 288.00 0.00 5.17 -4.17
194.00 288.00 0.00 5.17 -4.16
195.00 288.00 0.00 5.18 -4.14
196.00 288.00 0.00 5.19 -4.12
197.00 288.00 0.00 5.20 -4.11
198.00 288.00 0.00 5.21 -4.09
199.00 288.00 0.00 5.22 -4.07
200.00 288.00 0.00 5.23 -4.05
201.00 288.00 0.00 5.24 -4.04
202.00 288.00 0.00 5.24 -4.02
203.00 288.00 0.00 5.25 -4.00
204.00 288.00 0.00 5.26 -3.98
205.00 288.00 0.00 5.27 -3.96
206.00 288.00 0.00 5.28 -3.94
207.00 288.00 0.00 5.29 -3.93
208.00 288.00 0.00 5.30 -3.91
209.00 288.00 0.00 5.31 -3.89
210.00 288.00 0.00 5.32 -3.87
211.00 288.00 0.00 5.33 -3.85
212.00 288.00 0.00 5.34 -3.83
213.00 288.00 0.00 5.35 -3.81
214.00 288.00 0.00 5.36 -3.79
215.00 288.00 0.00 5.37 -3.77
216.00 288.00 0.00 5.38 -3.75
217.00 288.00 0.00 5.39 -3.73
218.00 288.00 0.00 5.40 -3.71
219.00 288.00 0.00 5.41 -3.69
220.00 288.00 0.00 5.42 -3.67
221.00 288.00 0.00 5.43 -3.65
222.00 288.00 0.00 5.44 -3.63
223.00 288.00 0.00 5.45 -3.61
224.00 288.00 0.00 5.46 -3.58
225.00 288.00 0.00 5.47 -3.56
226.00 288.00 0.00 5.48 -3.54
227.00 288.00 0.00 5.49 -3.52
228.00 288.00 0.00 5.50 -3.50
229.00 288.00 0.00 5.51 -3.48
230.00 288.00 0.00 5.52 -3.46
231.00 288.00 0.00 5.53 -3.44
232.00 288.00 0.00 5.54 -3.42
233.00 288.00 0.00 5.55 -3.39
234.00 288.00 0.00 5.56 -3.37
235.00 288.00 0.00 5.57 -3.35
236.00 288.00 0.00 5.58 -3.33
237.00 288.00 0.00 5.59 -3.31
238.00 288.00 0.00 5.60 -3.29
239.00 288.00 0.00 5.61 -3.26
240.00 288.00 0.00 5.62 -3.24
241.00 288.00 0.00 5.62 -3.22
242.00 288.00 0.00 5.64 -3.20
243.00 288.00 0.00 5.65 -3.18
244.00 288.00 0.00 5.66 -3.16
245.00 288.00 0.00 5.67 -3.13
246.00 288.00 0.00 5.68 -3.11
247.00 288.00 0.00 5.69 -3.09
248.00 288.00 0.00 5.70 -3.07
249.00 288.00 0.00 5.71 -3.05
250.00 288.00 0.00 5.72 -3.02
251.00 288.00 0.00 5.73 -3.00
252.00 288.00 0.00 5.74 -2.98
253.00 288.00 0.00 5.75 -2.96
254.00 288.00 0.00 5.76 -2.94
255.00 288.00 0.00 5.77 -2.91
256.00 288.00 0.00 5.78 -2.89
257.00 288.00 0.00 5.79 -2.87
258.00 288.00 0.00 5.80 -2.85
259.00 288.00 0.00 5.81 -2.82
260.00 288.00 0.00 5.82 -2.80
261.00 288.00 0.00 5.83 -2.78
262.00 288.00 0.00 5.84 -2.76
263.00 288.00 0.00 5.85 -2.74
264.00 288.00 0.00 5.86 -2.71
265.00 288.00 0.00 5.87 -2.69
266.00 288.00 0.00 5.88 -2.67
267.00 288.00 0.00 5.89 -2.64
268.00 288.00 0.00 5.90 -2.62
269.00 288.00 0.00 5.91 -2.60
270.00 288.00 0.00 5.92 -2.58
271.00 288.00 0.00 5.93 -2.55
272.00 288.00 0.00 5.94 -2.53
273.00 288.00 0.00 5.95 -2.51
274.00 288.00 0.00 5.96 -2.49
275.00 288.00 0.00 5.97 -2.46
276.00 288.00 0.00 5.98 -2.44
277.00 288.00 0.00 5.99 -2.42
278.00 288.00 0.00 6.00 -2.39
279.00 288.00 0.00 6.01 -2.37
280.00 288.00 0.00 6.02 -2.35
281.00 288.00 0.00 6.03 -2.33
282.00 288.00 0.00 6.04 -2.30
283.00 288.00 0.00 6.05 -2.28
284.00 288.00 0.00 6.06 -2.26
285.00 288.00 0.00 6.07 -2.23
286.00 288.00 0.00 6.08 -2.21
287.00 288.00 0.00 6.09 -2.19
288.00 288.00 0.00 6.10 -2.16
289.00 288.00 0.00 6.11 -2.14
290.00 288.00 0.00 6.12 -2.12
291.00 288.00 0.00 6.13 -2.09
292.00 288.00 0.00 6.14 -2.07
293.00 288.00 0.00 6.15 -2.05
294.00 288.00 0.00 6.16 -2.02
295.00 288.00 0.00 6.17 -2.00
296.00 288.00 0.00 6.18 -1.98
297.00 288.00 0.00 6.19 -1.95
298.00 288.00 0.00 6.20 -1.93
299.00 288.00 0.00 6.21 -1.91
300.00 288.00 0.00 6.21 -1.88
301.00 288.00 0.00 6.23 -1.86
302.00 288.00 0.00 6.24 -1.84
303.00 288.00 0.00 6.25 -1.81
304.00 288.00 0.00 6.26 -1.79
305.00 288.00 0.00 6.27 -1.76
306.00 288.00 0.00 6.28 -1.74
307.00 288.00 0.00 6.29 -1.72
308.00 288.00 0.00 6.30 -1.69
309.00 288.00 0.00 6.31 -1.67
310.00 288.00 0.00 6.32 -1.65
311.00 288.00 0.00 6.33 -1.62
312.00 288.00 0.00 6.34 -1.60
313.00 288.00 0.00 6.35 -1.57
314.00 288.00 0.00 6.36 -1.55
315.00 288.00 0.00 6.37 -1.53
316.00 288.00 0.00 6.38 -1.50
317.00 288.00 0.00 6.39 -1.48
318.00 288.00 0.00 6.40 -1.46
319.00 288.00 0.00 6.41 -1.43
320.00 288.00 0.00 6.42 -1.41
321.00 288.00 0.00 6.43 -1.38
322.00 288.00 0.00 6.44 -1.36
323.00 288.00 0.00 6.45 -1.34
324.00 288.00 0.00 6.46 -1.31
325.00 288.00 0.00 6.47 -1.29
326.00 288.00 0.00 6.48 -1.26
327.00 288.00 0.00 6.49 -1.24
328.00 288.00 0.00 6.50 -1.22
329.00 288.00 0.00 6.51 -1.19
330.00 288.00 0.00 6.52 -1.17
331.00 288.00 0.00 6.53 -1.14
332.00 288.00 0.00 6.54 -1.12
333.00 288.00 0.00 6.55 -1.10
334.00 288.00 0.00 6.56 -1.07
335.00 288.00 0.00 6.57 -1.05
336.00 288.00 0.00 6.58 -1.02
337.00 288.00 0.00 6.59 -1.00
338.00 288.00 0.00 6.60 -0.97
339.00 288.00 0.00 6.61 -0.95
340.00 288.00 0.00 6.62 -0.93
341.00 288.00 0.00 6.63 -0.90
342.00 288.00 0.00 6.64 -0.88
343.00 288.00 0.00 6.65 -0.85
344.00 288.00 0.00 6.66 -0.83
345.00 288.00 0.00 6.67 -0.80
346.00 288.00 0.00 6.68 -0.78
347.00 288.00 0.00 6.69 -0.76
348.00 288.00 0.00 6.70 -0.73
349.00 288.00 0.00 6.71 -0.71
350.00 288.00 0.00 6.72 -0.68
351.00 288.00 0.00 6.73 -0.66
352.00 288.00 0.00 6.74 -0.63
353.00 288.00 0.00 6.75 -0.61
354.00 288.00 0.00 6.76 -0.59
355.00 288.00 0.00 6.77 -0.56
356.00 288.00 0.00 6.78 -0.54
357.00 288.00 0.00 6.79 -0.51
358.00 288.00 0.00 6.80 -0.49
359.00 288.00 0.00 6.81 -0.46
360.00 288.00 0.00 6.82 -0.44
361.00 288.00 0.00 6.83 -0.42
362.00 288.00 0.00 6.84 -0.39
363.00 288.00 0.00 6.85 -0.37
364.00 288.00 0.00 6.86 -0.34
365.00 288.00 0.00 6.87 -0.32
366.00 288.00 0.00 6.88 -0.29
367.00 288.00 0.00 6.89 -0.27
368.00 288.00 0.00 6.90 -0.24
369.00 288.00 0.00 6.91 -0.22
370.00 288.00 0.00 6.92 -0.20
371.00 288.00 0.00 6.93 -0.17
372.00 288.00 0.00 6.94 -0.15
373.00 288.00 0.00 6.95 -0.12
374.00 288.00 0.00 6.96 -0.10
375.00 288.00 0.00 6.97 -0.07
376.00 288.00 0.00 6.98 -0.05
377.00 288.00 0.00 6.99 -0.02
378.00 288.00 0.00 7.00 0.00
379.00 288.00 0.00 7.01 0.02
380.00 288.00 0.00 7.02 0.05
381.00 288.00 0.00 7.03 0.07
382.00 288.00 0.00 7.04 0.10
383.00 288.00 0.00 7.05 0.12
384.00 288.00 0.00 7.06 0.15
385.00 288.00 0.00 7.07 0.17
386.00 288.00 0.00 7.08 0.20
387.00 288.00 0.00 7.09 0.22
388.00 288.00 0.00 7.10 0.24
389.00 288.00 0.00 7.11 0.27
390.00 288.00 0.00 7.12 0.29
391.00 288.00 0.00 7.13 0.32
392.00 288.00 0.00 7.14 0.34
393.00 288.00 0.00 7.15 0.37
394.00 288.00 0.00 7.16 0.39
395.00 288.00 0.00 7.17 0.42
396.00 288.00 0.00 7.18 0.44
397.00 288.00 0.00 7.19 0.46
398.00 288.00 0.00 7.19 0.49
399.00 288.00 0.00 7.21 0.51
400.00 288.00 0.00 7.22 0.54
401.00 288.00 0.00 7.23 0.56
402.00 288.00 0.00 7.24 0.59
403.00 288.00 0.00 7.25 0.61
404.00 288.00 0.00 7.26 0.63
405.00 288.00 0.00 7.27 0.66
406.00 288.00 0.00 7.28 0.68
407.00 288.00 0.00 7.29 0.71
408.00 288.00 0.00 7.30 0.73
409.00 288.00 0.00 7.31 0.76
410.00 288.00 0.00 7.32 0.78
411.00 288.00 0.00 7.33 0.80
412.00 288.00 0.00 7.34 0.83
413.00 288.00 0.00 7.35 0.85
414.00 288.00 0.00 7.36 0.88
415.00 288.00 0.00 7.37 0.90
416.00 288.00 0.00 7.37 0.93
417.00 288.00 0.00 7.39 0.95
418.00 288.00 0.00 7.40 0.97
419.00 288.00 0.00 7.41 1.00
420.00 288.00 0.00 7.42 1.02
421.00 288.00 0.00 7.43 1.05
422.00 288.00 0.00 7.44 1.07
423.00 288.00 0.00 7.45 1.10
424.00 288.00 0.00 7.46 1.12
425.00 288.00 0.00 7.47 1.14
426.00 288.00 0.00 7.48 1.17
427.00 288.00 0.00 7.49 1.19
428.00 288.00 0.00 7.50 1.22
429.00 288.00 0.00 7.51 1.24
430.00 288.00 0.00 7.52 1.26
431.00 288.00 0.00 7.53 1.29
432.00 288.00 0.00 7.54 1.31
433.00 288.00 0.00 7.55 1.34
434.00 288.00 0.00 7.56 1.36
435.00 288.00 0.00 7.57 1.38
436.00 288.00 0.00 7.58 1.41
437.00 288.00 0.00 7.59 1.43
438.00 288.00 0.00 7.60 1.46
439.00 288.00 0.00 7.61 1.48
440.00 288.00 0.00 7.61 1.50
441.00 288.00 0.00 7.62 1.53
442.00 288.00 0.00 7.64 1.55
443.00 288.00 0.00 7.65 1.57
444.00 288.00 0.00 7.66 1.60
445.00 288.00 0.00 7.67 1.62
446.00 288.00 0.00 7.68 1.65
447.00 288.00 0.00 7.69 1.67
448.00 288.00 0.00 7.70 1.69
449.00 288.00 0.00 7.71 1.72
450.00 288.00 0.00 7.72 1.74
451.00 288.00 0.00 7.73 1.76
452.00 288.00 0.00 7.74 1.79
453.00 288.00 0.00 7.75 1.81
454.00 288.00 0.00 7.76 1.84
455.00 288.00 0.00 7.77 1.86
456.00 288.00 0.00 7.78 1.88
457.00 288.00 0.00 7.79 1.91
458.00 288.00 0.00 7.80 1.93
459.00 288.00 0.00 7.80 1.95
460.00 288.00 0.00 7.82 1.98
461.00 288.00 0.00 7.83 2.00
462.00 288.00 0.00 7.84 2.02
463.00 288.00 0.00 7.85 2.05
464.00 288.00 0.00 7.86 2.07
465.00 288.00 0.00 7.87 2.09
466.00 288.00 0.00 7.88 2.12
467.00 288.00 0.00 7.89 2.14
468.00 288.00 0.00 7.90 2.16
469.00 288.00 0.00 7.90 2.19
470.00 288.00 0.00 7.92 2.21
471.00 288.00 0.00 7.93 2.23
472.00 288.00 0.00 7.94 2.26
473.00 288.00 0.00 7.95 2.28
474.00 288.00 0.00 7.96 2.30
475.00 288.00 0.00 7.96 2.33
476.00 288.00 0.00 7.98 2.35
477.00 288.00 0.00 7.99 2.37
478.00 288.00 0.00 8.00 2.39
479.00 288.00 0.00 8.01 2.42
480.00 288.00 0.00 8.02 2.44
481.00 288.00 0.00 8.03 2.46
482.00 288.00 0.00 8.04 2.49
483.00 288.00 0.00 8.05 2.51
484.00 288.00 0.00 8.06 2.53
485.00 288.00 0.00 8.07 2.55
486.00 288.00 0.00 8.08 2.58
487.00 288.00 0.00 8.09 2.60
488.00 288.00 0.00 8.10 2.62
489.00 288.00 0.00 8.11 2.64
490.00 288.00 0.00 8.12 2.67
491.00 288.00 0.00 8.12 2.69
492.00 288.00 0.00 8.13 2.71
493.00 288.00 0.00 8.15 2.74
494.00 288.00 0.00 8.16 2.76
495.00 288.00 0.00 8.17 2.78
496.00 288.00 0.00 8.18 2.80
497.00 288.00 0.00 8.19 2.82
498.00 288.00 0.00 8.20 2.85
499.00 288.00 0.00 8.21 2.87
500.00 288.00 0.00 8.22 2.89
501.00 288.00 0.00 8.23 2.91
502.00 288.00 0.00 8.24 2.94
503.00 288.00 0.00 8.25 2.96
504.00 288.00 0.00 8.26 2.98
505.00 288.00 0.00 8.27 3.00
506.00 288.00 0.00 8.28 3.02
507.00 288.00 0.00 8.29 3.05
508.00 288.00 0.00 8.30 3.07
509.00 288.00 0.00 8.31 3.09
510.00 288.00 0.00 8.32 3.11
511.00 288.00 0.00 8.33 3.13
512.00 288.00 0.00 8.34 3.16
513.00 288.00 0.00 8.35 3.18
514.00 288.00 0.00 8.36 3.20
515.00 288.00 0.00 8.37 3.22
516.00 288.00 0.00 8.38 3.24
517.00 288.00 0.00 8.39 3.26
518.00 288.00 0.00 8.40 3.29
519.00 288.00 0.00 8.41 3.31
520.00 288.00 0.00 8.42 3.33
521.00 288.00 0.00 8.43 3.35
522.00 288.00 0.00 8.44 3.37
523.00 288.00 0.00 8.45 3.39
524.00 288.00 0.00 8.46 3.42
525.00 288.00 0.00 8.47 3.44
526.00 288.00 0.00 8.48 3.46
527.00 288.00 0.00 8.48 3.48
528.00 288.00 0.00 8.50 3.50
529.00 288.00 0.00 8.51 3.52
530.00 288.00 0.00 8.52 3.54
531.00 288.00 0.00 8.53 3.56
532.00 288.00 0.00 8.54 3.58
533.00 288.00 0.00 8.54 3.61
534.00 288.00 0.00 8.56 3.63
535.00 288.00 0.00 8.57 3.65
536.00 288.00 0.00 8.58 3.67
537.00 288.00 0.00 8.59 3.69
538.00 288.00 0.00 8.59 3.71
539.00 288.00 0.00 8.60 3.73
540.00 288.00 0.00 8.61 3.75
541.00 288.00 0.00 8.62 3.77
542.00 288.00 0.00 8.63 3.79
543.00 288.00 0.00 8.64 3.81
544.00 288.00 0.00 8.65 3.83
545.00 288.00 0.00 8.66 3.85
546.00 288.00 0.00 8.67 3.87
547.00 288.00 0.00 8.68 3.89
548.00 288.00 0.00 8.69 3.91
549.00 288.00 0.00 8.70 3.93
550.00 288.00 0.00 8.71 3.94
551.00 288.00 0.00 8.72 3.96
552.00 288.00 0.00 8.73 3.98
553.00 288.00 0.00 8.74 4.00
554.00 288.00 0.00 8.75 4.02
555.00 288.00 0.00 8.76 4.04
556.00 288.00 0.00 8.76 4.05
557.00 288.00 0.00 8.77 4.07
558.00 288.00 0.00 8.78 4.09
559.00 288.00 0.00 8.79 4.11
560.00 288.00 0.00 8.80 4.12
561.00 288.00 0.00 8.81 4.14
562.00 288.00 0.00 8.82 4.16
563.00 288.00 0.00 8.83 4.17
564.00 288.00 0.00 8.83 4.19
565.00 288.00 0.00 8.84 4.21
566.00 288.00 0.00 8.85 4.22
567.00 288.00 0.00 8.86 4.24
568.00 288.00 0.00 8.87 4.26
569.00 288.00 0.00 8.88 4.27
570.00 288.00 0.00 8.88 4.29
571.00 288.00 0.00 8.89 4.30
572.00 288.00 0.00 8.90 4.32
573.00 288.00 0.00 8.91 4.33
574.00 288.00 0.00 8.92 4.35
575.00 288.00 0.00 8.92 4.37
576.00 288.00 0.00 8.93 4.38
577.00 288.00 0.00 8.94 4.39
578.00 288.00 0.00 8.95 4.41
579.00 288.00 0.00 8.96 4.42
580.00 288.00 0.00 8.96 4.44
581.00 288.00 0.00 8.97 4.45
582.00 288.00 0.00 8.98 4.47
583.00 288.00 0.00 8.99 4.48
584.00 288.00 0.00 8.99 4.49
585.00 288.00 0.00 9.00 4.51
586.00 288.00 0.00 9.01 4.52
587.00 288.00 0.00 9.02 4.54
588.00 288.00 0.00 9.02 4.55
589.00 288.00 0.00 9.03 4.56
590.00 288.00 0.00 9.04 4.58
591.00 288.00 0.00 9.04 4.59
592.00 288.00 0.00 9.05 4.60
593.00 288.00 0.00 9.06 4.61
594.00 288.00 0.00 9.06 4.63
595.00 288.00 0.00 9.07 4.64
596.00 288.00 0.00 9.08 4.65
597.00 288.00 0.00 9.09 4.66
598.00 288.00 0.00 9.09 4.67
599.00 288.00 0.00 9.10 4.69
600.00 288.00 0.00 9.10 4.70
601.00 288.00 0.00 9.11 4.71
602.00 288.00 0.00 9.12 4.72
603.00 288.00 0.00 9.12 4.73
604.00 288.00 0.00 9.13 4.74
605.00 288.00 0.00 9.14 4.76
606.00 288.00 0.00 9.14 4.77
607.00 288.00 0.00 9.15 4.78
608.00 288.00 0.00 9.16 4.79
609.00 288.00 0.00 9.16 4.80
610.00 288.00 0.00 9.17 4.81
611.00 288.00 0.00 9.17 4.82
612.00 288.00 0.00 9.18 4.83
613.00 288.00 0.00 9.18 4.84
614.00 288.00 0.00 9.19 4.85
615.00 288.00 0.00 9.20 4.86
616.00 288.00 0.00 9.20 4.87
617.00 288.00 0.00 9.21 4.88
618.00 288.00 0.00 9.21 4.89
619.00 288.00 0.00 9.22 4.90
620.00 288.00 0.00 9.22 4.91
621.00 288.00 0.00 9.23 4.92
622.00 288.00 0.00 9.23 4.93
623.00 288.00 0.00 9.24 4.94
624.00 288.00 0.00 9.24 4.95
625.00 288.00 0.00 9.25 4.95
626.00 288.00 0.00 9.26 4.96
627.00 288.00 0.00 9.26 4.97
628.00 288.00 0.00 9.27 4.98
629.00 288.00 0.00 9.27 4.99
630.00 288.00 0.00 9.27 5.00
631.00 288.00 0.00 9.28 5.00
632.00 288.00 0.00 9.28 5.01
633.00 288.00 0.00 9.29 5.02
634.00 288.00 0.00 9.29 5.03
635.00 288.00 0.00 9.30 5.04
636.00 288.00 0.00 9.30 5.04
637.00 288.00 0.00 9.31 5.05
638.00 288.00 0.00 9.31 5.06
639.00 288.00 0.00 9.32 5.07
640.00 288.00 0.00 9.32 5.07
641.00 288.00 0.00 9.32 5.08
642.00 288.00 0.00 9.33 5.09
643.00 288.00 0.00 9.33 5.09
644.00 288.00 0.00 9.34 5.10
645.00 288.00 0.00 9.34 5.11
646.00 288.00 0.00 9.35 5.11
647.00 288.00 0.00 9.35 5.12
648.00 288.00 0.00 9.35 5.13
649.00 288.00 0.00 9.36 5.13
650.00 288.00 0.00 9.36 5.14
651.00 288.00 0.00 9.36 5.15
652.00 288.00 0.00 9.37 5.15
653.00 288.00 0.00 9.37 5.16
654.00 288.00 0.00 9.37 5.16
655.00 288.00 0.00 9.38 5.17
656.00 288.00 0.00 9.38 5.17
657.00 288.00 0.00 9.39 5.18
658.00 288.00 0.00 9.39 5.19
659.00 288.00 0.00 9.39 5.19
660.00 288.00 0.00 9.39 5.20
661.00 288.00 0.00 9.40 5.20
662.00 288.00 0.00 9.40 5.21
663.00 288.00 0.00 9.40 5.21
664.00 288.00 0.00 9.41 5.22
665.00 288.00 0.00 9.41 5.22
666.00 288.00 0.00 9.41 5.23
667.00 288.00 0.00 9.42 5.23
668.00 288.00 0.00 9.42 5.23
669.00 288.00 0.00 9.42 5.24
670.00 288.00 0.00 9.42 5.24
671.00 288.00 0.00 9.43 5.25
672.00 288.00 0.00 9.43 5.25
673.00 288.00 0.00 9.43 5.25
674.00 288.00 0.00 9.43 5.26
675.00 288.00 0.00 9.44 5.26
676.00 288.00 0.00 9.44 5.27
677.00 288.00 0.00 9.44 5.27
678.00 288.00 0.00 9.44 5.27
679.00 288.00 0.00 9.44 5.28
680.00 288.00 0.00 9.45 5.28
681.00 288.00 0.00 9.45 5.28
682.00 288.00 0.00 9.45 5.29
683.00 288.00 0.00 9.45 5.29
684.00 288.00 0.00 9.45 5.29
685.00 288.00 0.00 9.46 5.29
686.00 288.00 0.00 9.46 5.30
687.00 288.00 0.00 9.46 5.30
688.00 288.00 0.00 9.46 5.30
689.00 288.00 0.00 9.46 5.31
690.00 288.00 0.00 9.46 5.31
691.00 288.00 0.00 9.47 5.31
692.00 288.00 0.00 9.47 5.31
693.00 288.00 0.00 9.47 5.31
694.00 288.00 0.00 9.47 5.32
695.00 288.00 0.00 9.47 5.32
696.00 288.00 0.00 9.47 5.32
697.00 288.00 0.00 9.47 5.32
698.00 288.00 0.00 9.47 5.32
699.00 288.00 0.00 9.48 5.33
700.00 288.00 0.00 9.48 5.33
701.00 288.00 0.00 9.48 5.33
702.00 288.00 0.00 9.48 5.33
703.00 288.00 0.00 9.48 5.33
704.00 288.00 0.00 9.48 5.33
705.00 288.00 0.00 9.48 5.33
706.00 288.00 0.00 9.48 5.33
707.00 288.00 0.00 9.48 5.33
708.00 288.00 0.00 9.48 5.34
709.00 288.00 0.00 9.48 5.34
710.00 288.00 0.00 9.48 5.34
711.00 288.00 0.00 9.48 5.34
712.00 288.00 0.00 9.48 5.34
713.00 288.00 0.00 9.48 5.34
714.00 288.00 0.00 9.48 5.34
715.00 288.00 0.00 9.48 5.34
716.00 288.00 0.00 9.48 5.34
717.00 288.00 0.00 9.49 5.34
718.00 288.00 0.00 9.49 5.34
719.00 288.00 0.00 9.49 5.34
720.00 288.00 0.00 9.49 5.34
721.00 288.00 0.00 9.49 5.34
722.00 288.00 0.00 9.49 5.34
723.00 288.00 0.00 9.49 5.34
724.00 288.00 0.00 9.49 5.34
725.00 288.00 0.00 9.49 5.34
726.00 288.00 0.00 9.49 5.34
727.00 288.00 0.00 9.49 5.34
728.00 288.00 0.00 9.49 5.34
729.00 288.00 0.00 9.49 5.34
730.00 288.00 0.00 9.49 5.34
731.00 288.00 0.00 9.49 5.34
732.00 288.00 0.00 9.49 5.34
733.00 288.00 0.00 9.49 5.34
734.00 288.00 0.00 9.49 5.34
735.00 288.00 0.00 9.49 5.34
736.00 288.00 0.00 9.49 5.34
737.00 288.00 0.00 9.49 5.34
738.00 288.00 0.00 9.49 5.34
739.00 288.00 0.00 9.49 5.34
740.00 288.00 0.00 9.49 5.34
741.00 288.00 0.00 9.49 5.34
742.00 288.00 0.00 9.49 5.34
743.00 288.00 0.00 9.49 5.34
744.00 288.00 0.00 9.49 5.34
745.00 288.00 0.00 9.49 5.34
746.00 288.00 0.00 9.49 5.34
747.00 288.00 0.00 9.49 5.34
748.00 288.00 0.00 9.49 5.34
749.00 288.00 0.00 9.49 5.34
750.00 288.00 0.00 9.49 5.34
751.00 288.00 0.00 9.49 5.34
752.00 288.00 0.00 9.49 5.34
753.00 288.00 0.00 9.49 5.34
754.00 288.00 0.00 9.49 5.34
755.00 288.00 0.00 9.49 5.34
756.00 288.00 0.00 9.49 5.34
757.00 288.00 0.00 9.49 5.34
758.00 288.00 0.00 9.49 5.34
759.00 288.00 0.00 9.49 5.34
760.00 288.00 0.00 9.49 5.34
761.00 288.00 0.00 9.49 5.34
762.00 288.00 0.00 9.49 5.34
763.00 288.00 0.00 9.49 5.34
764.00 288.00 0.00 9.49 5.34
765.00 288.00 0.00 9.49 5.34
766.00 288.00 0.00 9.49 5.34
767.00 288.00 0.00 9.49 5.34
768.00 288.00 0.00 9.49 5.34
769.00 288.00 0.00 9.49 5.34
770.00 288.00 0.00 9.49 5.34
771.00 288.00 0.00 9.49 5.34
772.00 288.00 0.00 9.49 5.34
773.00 288.00 0.00 9.49 5.34
774.00 288.00 0.00 9.49 5.34
775.00 288.00 0.00 9.49 5.34
776.00 288.00 0.00 9.49 5.34
777.00 288.00 0.00 9.49 5.34
778.00 288.00 0.00 9.49 5.34
779.00 288.00 0.00 9.49 5.34
780.00 288.00 0.00 9.49 5.34
781.00 288.00 0.00 9.49 5.34
782.00 288.00 0.00 9.49 5.34
783.00 288.00 0.00 9.49 5.34
784.00 288.00 0.00 9.49 5.34
785.00 288.00 0.00 9.49 5.34
786.00 288.00 0.00 9.49 5.34
787.00 288.00 0.00 9.49 5.34
788.00 288.00 0.00 9.49 5.34
789.00 288.00 0.00 9.49 5.34
790.00 288.00 0.00 9.49 5.34
791.00 288.00 0.00 9.49 5.34
792.00 288.00 0.00 9.49 5.34
793.00 288.00 0.00 9.49 5.34
794.00 288.00 0.00 9.49 5.34
795.00 288.00 0.00 9.49 5.34
796.00 288.00 0.00 9.49 5.34
797.00 288.00 0.00 9.49 5.34
798.00 288.00 0.00 9.49 5.34
799.00 288.00 0.00 9.49 5.34
800.00 288.00 0.00 9.49 5.34
801.00 288.00 0.00 9.49 5.34
802.00 288.00 0.00 9.49 5.34
803.00 288.00 0.00 9.49 5.34
804.00 288.00 0.00 9.49 5.34
805.00 288.00 0.00 9.49 5.34
806.00 288.00 0.00 9.49 5.34
807.00 288.00 0.00 9.49 5.34
808.00 288.00 0.00 9.49 5.34
809.00 288.00 0.00 9.49 5.34
810.00 288.00 0.00 9.49 5.34
811.00 288.00 0.00 9.49 5.34
812.00 288.00 0.00 9.49 5.34
813.00 288.00 0.00 9.49 5.34
814.00 288.00 0.00 9.49 5.34
815.00 288.00 0.00 9.49 5.34
816.00 288.00 0.00 9.49 5.34
817.00 288.00 0.00 9.49 5.34
818.00 288.00 0.00 9.49 5.34
819.00 288.00 0.00 9.49 5.34
820.00 288.00 0.00 9.49 5.34
821.00 288.00 0.00 9.49 5.34
822.00 288.00 0.00 9.49 5.34
823.00 288.00 0.00 9.49 5.34
824.00 288.00 0.00 9.49 5.34
825.00 288.00 0.00 9.49 5.34
826.00 288.00 0.00 9.49 5.34
827.00 288.00 0.00 9.49 5.34
828.00 288.00 0.00 9.49 5.34
829.00 288.00 0.00 9.49 5.34
830.00 288.00 0.00 9.49 5.34
831.00 288.00 0.00 9.49 5.34
